17
charge=0 charge_a=0 charge_b=0 selection_a=1-8 selection_b=9-17 scaling=0.95 benchmark_Eint=-6.919 benchmark_unit=kcal/mol group=OH-O
  C    2.365785395   0.096641088   0.000000000
  O    1.824082998   1.175372567   0.000000000
  O    1.689574610  -1.063821779   0.000000000
  H    0.733097141  -0.867785779   0.000000000
  C    3.852642959  -0.121110833   0.000000000
  H    4.364005600   0.834872993   0.000000000
  H    4.140093401  -0.699424225  -0.877065399
  H    4.140093401  -0.699424225   0.877065399
  H   -4.247883052  -0.595299674   0.000000000
  H   -3.212637140   1.936809689   0.000000000
  H   -2.055777705  -2.230548036   0.000000000
  H   -0.486772280   1.556460458   0.000000000
  C   -2.666166473   1.011106126   0.000000000
  C   -3.209637573  -0.316255186   0.000000000
  C   -2.155174363  -1.161751694   0.000000000
  O   -0.988535869  -0.448839094   0.000000000
  C   -1.320748401   0.879840713   0.000000000
