19
charge=0 charge_a=0 charge_b=0 selection_a=1-8 selection_b=9-19 scaling=0.8 benchmark_Eint=-4.721 benchmark_unit=kcal/mol group=OH-O
  C   -2.441198890   0.033254533  -0.124921211
  O   -1.931573044  -0.950144385  -0.613235076
  O   -1.748098619   1.022211060   0.441888845
  H   -0.779806185   0.838827019   0.382471585
  C   -3.923988576   0.287688186  -0.084149840
  H   -4.454363731  -0.547613916  -0.527712971
  H   -4.246359137   0.432903241   0.945966783
  H   -4.153250205   1.204469398  -0.626043796
  H    3.066506836   1.656721008   0.463014171
  H    4.149915024   0.825034988  -0.688870104
  H    2.589852873   1.501445590  -1.237141835
  H   -0.244455166  -1.754154212   0.042758139
  C    1.255928180  -0.276855925   0.215927402
  O    2.543025177  -0.267268804  -0.139318820
  C    3.118900043   1.021573022  -0.417719597
  C    0.737282296  -1.651081668   0.500685403
  O    0.603966909   0.744528833   0.303830971
  H    0.612310494  -1.752812562   1.579354225
  H    1.421742448  -2.415935781   0.149277819
