17
charge=0 charge_a=0 charge_b=0 selection_a=1-8 selection_b=9-17 scaling=2.0 benchmark_Eint=-1.117 benchmark_unit=kcal/mol group=OH-O
  C    2.365785395   0.096641088   0.000000000
  O    1.824082998   1.175372567   0.000000000
  O    1.689574610  -1.063821779   0.000000000
  H    0.733097141  -0.867785779   0.000000000
  C    3.852642959  -0.121110833   0.000000000
  H    4.364005600   0.834872993   0.000000000
  H    4.140093401  -0.699424225  -0.877065399
  H    4.140093401  -0.699424225   0.877065399
  H   -6.150740590  -0.132253337   0.000000000
  H   -5.115494678   2.399856026   0.000000000
  H   -3.958635243  -1.767501699   0.000000000
  H   -2.389629818   2.019506795   0.000000000
  C   -4.569024011   1.474152463   0.000000000
  C   -5.112495111   0.146791151   0.000000000
  C   -4.058031901  -0.698705357   0.000000000
  O   -2.891393407   0.014207243   0.000000000
  C   -3.223605939   1.342887050   0.000000000
