17
charge=0 charge_a=0 charge_b=0 selection_a=1-8 selection_b=9-17 scaling=0.9 benchmark_Eint=-6.226 benchmark_unit=kcal/mol group=OH-O
  C    2.365785395   0.096641088   0.000000000
  O    1.824082998   1.175372567   0.000000000
  O    1.689574610  -1.063821779   0.000000000
  H    0.733097141  -0.867785779   0.000000000
  C    3.852642959  -0.121110833   0.000000000
  H    4.364005600   0.834872993   0.000000000
  H    4.140093401  -0.699424225  -0.877065399
  H    4.140093401  -0.699424225   0.877065399
  H   -4.157270789  -0.617349499   0.000000000
  H   -3.122024877   1.914759864   0.000000000
  H   -1.965165442  -2.252597861   0.000000000
  H   -0.396160017   1.534410633   0.000000000
  C   -2.575554210   0.989056301   0.000000000
  C   -3.119025310  -0.338305011   0.000000000
  C   -2.064562100  -1.183801519   0.000000000
  O   -0.897923606  -0.470888919   0.000000000
  C   -1.230136138   0.857790888   0.000000000
