17
charge=0 charge_a=0 charge_b=0 selection_a=1-8 selection_b=9-17 scaling=1.1 benchmark_Eint=-10.129 benchmark_unit=kcal/mol group=OH-O
  C   -1.491858717   0.101062052  -0.000000000
  O   -0.926994779   1.170861437  -0.000000000
  O   -0.847305949  -1.070582257   0.000000000
  H    0.129157077  -0.901122434   0.000000000
  C   -2.986137905  -0.074097992   0.000000000
  H   -3.290093155  -0.644535420   0.876735803
  H   -3.290093155  -0.644535420  -0.876735803
  H   -3.471509099   0.895533643  -0.000000000
  H    2.015282949  -0.381296473   2.026463094
  H    1.662209887   1.169422476   1.225744873
  H    3.323148279   0.509582870   1.216696173
  H    2.015282949  -0.381296473  -2.026463094
  H    1.662209887   1.169422476  -1.225744873
  H    3.323148279   0.509582870  -1.216696173
  C    2.260442129   0.257313185   1.182021028
  O    1.965954167  -0.478051317   0.000000000
  C    2.260442129   0.257313185  -1.182021028
