18
charge=0 charge_a=0 charge_b=0 selection_a=1-8 selection_b=9-18 scaling=1.5 benchmark_Eint=-5.436 benchmark_unit=kcal/mol group=OH-O
  C   -2.075337908   0.074007572   0.047491581
  O   -1.538843278   1.136948072   0.265296312
  O   -1.409896142  -1.063351731  -0.158877881
  H   -0.436366288  -0.910685476  -0.097752306
  C   -3.565718252  -0.124226161  -0.022450769
  H   -4.071912881   0.821916411   0.133743481
  H   -3.876173714  -0.842988496   0.734889600
  H   -3.837883746  -0.539552364  -0.991834701
  H    1.537645118   1.501237700  -0.093627211
  H    3.179446868   2.044946775   0.375780393
  H    2.854000150   1.588172789  -1.284307105
  H    4.642308284  -1.419196339   0.270841323
  H    5.063355050   0.125060029  -0.524026725
  C    2.603946191   1.358744253  -0.244981522
  C    2.996241929  -0.066764189   0.025176604
  O    2.180912192  -0.969507148   0.055798272
  C    4.458531407  -0.349542942   0.249272756
  H    4.762937973   0.090655561   1.201116366
