18
charge=0 charge_a=0 charge_b=0 selection_a=1-8 selection_b=9-18 scaling=1.05 benchmark_Eint=-8.660 benchmark_unit=kcal/mol group=OH-O
  C   -2.103555415   0.058475586  -0.043485058
  O   -1.883751732  -1.106252838  -0.278789624
  O   -1.136739236   0.966317874   0.143715946
  H   -0.263227262   0.524474618   0.049641950
  C   -3.475211271   0.664097252   0.075519336
  H   -4.229591786  -0.100234651  -0.074044808
  H   -3.593156474   1.119637944   1.057804962
  H   -3.593397392   1.455399998  -0.663639830
  H    2.331770840  -2.180404074  -0.151253332
  H    0.540803990  -2.148171419  -0.294726124
  H    1.312510656  -1.791529131   1.267733380
  H    4.033203034   1.457798444   0.130422929
  H    3.743279864   0.177058325  -1.077789176
  H    2.727017208   1.648395904  -1.066721013
  C    1.410208872  -1.706433848   0.186165709
  O    1.378245854  -0.340594459  -0.211247779
  O    2.427843828   0.347173358   0.523043206
  C    3.273467838   0.934995692  -0.448780078
