17
charge=0 charge_a=0 charge_b=0 selection_a=1-8 selection_b=9-17 scaling=0.9 benchmark_Eint=-17.519 benchmark_unit=kcal/mol group=OH-O
  C    1.958822371   0.063448473   0.000000000
  O    1.374415430   1.134060225   0.000000000
  O    1.357670707  -1.110782181   0.000000000
  H    0.356229651  -1.021533495   0.000000000
  C    3.458528481  -0.051128874   0.000000000
  H    3.907842909   0.935707469   0.000000000
  H    3.782529378  -0.610419823  -0.876633742
  H    3.782529378  -0.610419823   0.876633742
  H   -1.904096980   2.016281129   0.000000000
  H   -0.290022266   1.326959556   0.000000000
  H   -3.838127010   0.795751581   0.000000000
  H   -3.618328888  -0.731530992   0.877448542
  H   -3.618328888  -0.731530992  -0.877448542
  O   -1.107350667  -1.035073717   0.000000000
  C   -1.817716235  -0.025158623   0.000000000
  N   -1.305921196   1.212342586   0.000000000
  C   -3.320414661  -0.160682540   0.000000000
