14
charge=0 charge_a=0 charge_b=0 selection_a=1-8 selection_b=9-14 scaling=0.95 benchmark_Eint=-11.783 benchmark_unit=kcal/mol group=OH-O
  C   -1.202626030  -0.080733881   0.001350480
  O   -0.611284810  -1.138047894   0.102443058
  O   -0.600049589   1.105867986   0.083328024
  H    0.366456693   0.954392657   0.237092681
  C   -2.682044803   0.036750991  -0.224321922
  H   -3.120790513  -0.949724025  -0.323201190
  H   -3.136152092   0.564136745   0.613777977
  H   -2.873672517   0.626809518  -1.119219604
  O    1.772585590   0.101232896   0.483699234
  H    1.187805814  -0.671990739   0.408107510
  C    2.800594029   0.023438763  -0.499109685
  H    3.386601710   0.936139974  -0.428178985
  H    3.456747575  -0.828889294  -0.315061960
  H    2.389375680  -0.054726204  -1.508287021
