14
charge=0 charge_a=0 charge_b=0 selection_a=1-8 selection_b=9-14 scaling=1.0 benchmark_Eint=-12.014 benchmark_unit=kcal/mol group=OH-O
  C   -1.202626030  -0.080733881   0.001350480
  O   -0.611284810  -1.138047894   0.102443058
  O   -0.600049589   1.105867986   0.083328024
  H    0.366456693   0.954392657   0.237092681
  C   -2.682044803   0.036750991  -0.224321922
  H   -3.120790513  -0.949724025  -0.323201190
  H   -3.136152092   0.564136745   0.613777977
  H   -2.873672517   0.626809518  -1.119219604
  O    1.846592374   0.056329751   0.496678526
  H    1.261812598  -0.716893884   0.421086802
  C    2.874600813  -0.021464382  -0.486130393
  H    3.460608494   0.891236829  -0.415199693
  H    3.530754359  -0.873792439  -0.302082668
  H    2.463382464  -0.099629349  -1.495307729
