17
charge=0 charge_a=0 charge_b=0 selection_a=1-8 selection_b=9-17 scaling=0.8 benchmark_Eint=-5.356 benchmark_unit=kcal/mol group=OH-O
  C   -1.491858717   0.101062052  -0.000000000
  O   -0.926994779   1.170861437  -0.000000000
  O   -0.847305949  -1.070582257   0.000000000
  H    0.129157077  -0.901122434   0.000000000
  C   -2.986137905  -0.074097992   0.000000000
  H   -3.290093155  -0.644535420   0.876735803
  H   -3.290093155  -0.644535420  -0.876735803
  H   -3.471509099   0.895533643  -0.000000000
  H    1.514338288  -0.496679505   2.026463094
  H    1.161265226   1.054039444   1.225744873
  H    2.822203618   0.394199838   1.216696173
  H    1.514338288  -0.496679505  -2.026463094
  H    1.161265226   1.054039444  -1.225744873
  H    2.822203618   0.394199838  -1.216696173
  C    1.759497468   0.141930153   1.182021028
  O    1.465009506  -0.593434349   0.000000000
  C    1.759497468   0.141930153  -1.182021028
