18
charge=0 charge_a=0 charge_b=0 selection_a=1-8 selection_b=9-18 scaling=0.8 benchmark_Eint=-3.547 benchmark_unit=kcal/mol group=OH-O
  C   -2.103555415   0.058475586  -0.043485058
  O   -1.883751732  -1.106252838  -0.278789624
  O   -1.136739236   0.966317874   0.143715946
  H   -0.263227262   0.524474618   0.049641950
  C   -3.475211271   0.664097252   0.075519336
  H   -4.229591786  -0.100234651  -0.074044808
  H   -3.593156474   1.119637944   1.057804962
  H   -3.593397392   1.455399998  -0.663639830
  H    1.940943908  -1.974435246  -0.089136730
  H    0.149977057  -1.942202591  -0.232609522
  H    0.921683723  -1.585560303   1.329849982
  H    3.642376102   1.663767272   0.192539531
  H    3.352452931   0.383027153  -1.015672574
  H    2.336190276   1.854364732  -1.004604411
  C    1.019381940  -1.500465020   0.248282311
  O    0.987418922  -0.134625631  -0.149131177
  O    2.037016895   0.553142186   0.585159808
  C    2.882640905   1.140964520  -0.386663476
