19
charge=0 charge_a=0 charge_b=0 selection_a=1-8 selection_b=9-19 scaling=1.0 benchmark_Eint=-10.885 benchmark_unit=kcal/mol group=OH-O
  C   -2.441198890   0.033254533  -0.124921211
  O   -1.931573044  -0.950144385  -0.613235076
  O   -1.748098619   1.022211060   0.441888845
  H   -0.779806185   0.838827019   0.382471585
  C   -3.923988576   0.287688186  -0.084149840
  H   -4.454363731  -0.547613916  -0.527712971
  H   -4.246359137   0.432903241   0.945966783
  H   -4.153250205   1.204469398  -0.626043796
  H    3.412450110   1.633146462   0.443354018
  H    4.495858298   0.801460442  -0.708530257
  H    2.935796147   1.477871044  -1.256801988
  H    0.101488108  -1.777728758   0.023097986
  C    1.601871454  -0.300430471   0.196267249
  O    2.888968451  -0.290843350  -0.158978973
  C    3.464843317   0.997998476  -0.437379750
  C    1.083225570  -1.674656214   0.481025250
  O    0.949910183   0.720954287   0.284170818
  H    0.958253768  -1.776387108   1.559694072
  H    1.767685722  -2.439510327   0.129617666
