14
charge=0 charge_a=0 charge_b=0 selection_a=1-8 selection_b=9-14 scaling=0.9 benchmark_Eint=-10.948 benchmark_unit=kcal/mol group=OH-O
  C   -1.202626030  -0.080733881   0.001350480
  O   -0.611284810  -1.138047894   0.102443058
  O   -0.600049589   1.105867986   0.083328024
  H    0.366456693   0.954392657   0.237092681
  C   -2.682044803   0.036750991  -0.224321922
  H   -3.120790513  -0.949724025  -0.323201190
  H   -3.136152092   0.564136745   0.613777977
  H   -2.873672517   0.626809518  -1.119219604
  O    1.698578806   0.146136042   0.470719942
  H    1.113799030  -0.627087593   0.395128218
  C    2.726587245   0.068341909  -0.512088978
  H    3.312594926   0.981043120  -0.441158278
  H    3.382740791  -0.783986148  -0.328041252
  H    2.315368896  -0.009823058  -1.521266314
