19
charge=0 charge_a=0 charge_b=0 selection_a=1-8 selection_b=9-19 scaling=1.05 benchmark_Eint=-10.775 benchmark_unit=kcal/mol group=OH-O
  C   -2.441198890   0.033254533  -0.124921211
  O   -1.931573044  -0.950144385  -0.613235076
  O   -1.748098619   1.022211060   0.441888845
  H   -0.779806185   0.838827019   0.382471585
  C   -3.923988576   0.287688186  -0.084149840
  H   -4.454363731  -0.547613916  -0.527712971
  H   -4.246359137   0.432903241   0.945966783
  H   -4.153250205   1.204469398  -0.626043796
  H    3.498935928   1.627252825   0.438438980
  H    4.582344116   0.795566805  -0.713445295
  H    3.022281965   1.471977407  -1.261717026
  H    0.187973926  -1.783622395   0.018182948
  C    1.688357272  -0.306324108   0.191352211
  O    2.975454269  -0.296736987  -0.163894011
  C    3.551329135   0.992104839  -0.442294788
  C    1.169711388  -1.680549851   0.476110212
  O    1.036396001   0.715060650   0.279255780
  H    1.044739586  -1.782280745   1.554779034
  H    1.854171540  -2.445403964   0.124702628
