17
charge=0 charge_a=0 charge_b=0 selection_a=1-8 selection_b=9-17 scaling=0.95 benchmark_Eint=-18.899 benchmark_unit=kcal/mol group=OH-O
  C    1.958822371   0.063448473   0.000000000
  O    1.374415430   1.134060225   0.000000000
  O    1.357670707  -1.110782181   0.000000000
  H    0.356229651  -1.021533495   0.000000000
  C    3.458528481  -0.051128874   0.000000000
  H    3.907842909   0.935707469   0.000000000
  H    3.782529378  -0.610419823  -0.876633742
  H    3.782529378  -0.610419823   0.876633742
  H   -1.985406997   2.015528895   0.000000000
  H   -0.371332283   1.326207322   0.000000000
  H   -3.919437027   0.794999347   0.000000000
  H   -3.699638905  -0.732283226   0.877448542
  H   -3.699638905  -0.732283226  -0.877448542
  O   -1.188660684  -1.035825951   0.000000000
  C   -1.899026252  -0.025910857   0.000000000
  N   -1.387231213   1.211590352   0.000000000
  C   -3.401724678  -0.161434774   0.000000000
