17
charge=0 charge_a=0 charge_b=0 selection_a=1-8 selection_b=9-17 scaling=1.1 benchmark_Eint=-18.484 benchmark_unit=kcal/mol group=OH-O
  C    1.958822371   0.063448473   0.000000000
  O    1.374415430   1.134060225   0.000000000
  O    1.357670707  -1.110782181   0.000000000
  H    0.356229651  -1.021533495   0.000000000
  C    3.458528481  -0.051128874   0.000000000
  H    3.907842909   0.935707469   0.000000000
  H    3.782529378  -0.610419823  -0.876633742
  H    3.782529378  -0.610419823   0.876633742
  H   -2.229337050   2.013272191   0.000000000
  H   -0.615262336   1.323950618   0.000000000
  H   -4.163367080   0.792742643   0.000000000
  H   -3.943568958  -0.734539930   0.877448542
  H   -3.943568958  -0.734539930  -0.877448542
  O   -1.432590737  -1.038082655   0.000000000
  C   -2.142956305  -0.028167561   0.000000000
  N   -1.631161266   1.209333648   0.000000000
  C   -3.645654731  -0.163691478   0.000000000
