18
charge=0 charge_a=0 charge_b=0 selection_a=1-8 selection_b=9-18 scaling=1.1 benchmark_Eint=-8.301 benchmark_unit=kcal/mol group=OH-O
  C   -2.103555415   0.058475586  -0.043485058
  O   -1.883751732  -1.106252838  -0.278789624
  O   -1.136739236   0.966317874   0.143715946
  H   -0.263227262   0.524474618   0.049641950
  C   -3.475211271   0.664097252   0.075519336
  H   -4.229591786  -0.100234651  -0.074044808
  H   -3.593156474   1.119637944   1.057804962
  H   -3.593397392   1.455399998  -0.663639830
  H    2.409936227  -2.221597839  -0.163676653
  H    0.618969376  -2.189365184  -0.307149445
  H    1.390676042  -1.832722896   1.255310059
  H    4.111368421   1.416604679   0.117999608
  H    3.821445250   0.135864560  -1.090212497
  H    2.805182595   1.607202139  -1.079144334
  C    1.488374259  -1.747627613   0.173742388
  O    1.456411241  -0.381788224  -0.223671100
  O    2.506009214   0.305979593   0.510619885
  C    3.351633224   0.893801927  -0.461203399
