18
charge=0 charge_a=0 charge_b=0 selection_a=1-8 selection_b=9-18 scaling=1.1 benchmark_Eint=-10.128 benchmark_unit=kcal/mol group=OH-O
  C   -2.075337908   0.074007572   0.047491581
  O   -1.538843278   1.136948072   0.265296312
  O   -1.409896142  -1.063351731  -0.158877881
  H   -0.436366288  -0.910685476  -0.097752306
  C   -3.565718252  -0.124226161  -0.022450769
  H   -4.071912881   0.821916411   0.133743481
  H   -3.876173714  -0.842988496   0.734889600
  H   -3.837883746  -0.539552364  -0.991834701
  H    0.839704190   1.516923479  -0.134574032
  H    2.481505940   2.060632554   0.334833572
  H    2.156059222   1.603858568  -1.325253926
  H    3.944367356  -1.403510560   0.229894502
  H    4.365414122   0.140745808  -0.564973546
  C    1.906005263   1.374430032  -0.285928343
  C    2.298301001  -0.051078410  -0.015770217
  O    1.482971264  -0.953821369   0.014851451
  C    3.760590479  -0.333857163   0.208325935
  H    4.064997045   0.106341340   1.160169545
