18
charge=0 charge_a=0 charge_b=0 selection_a=1-8 selection_b=9-18 scaling=1.25 benchmark_Eint=-8.370 benchmark_unit=kcal/mol group=OH-O
  C   -2.075337908   0.074007572   0.047491581
  O   -1.538843278   1.136948072   0.265296312
  O   -1.409896142  -1.063351731  -0.158877881
  H   -0.436366288  -0.910685476  -0.097752306
  C   -3.565718252  -0.124226161  -0.022450769
  H   -4.071912881   0.821916411   0.133743481
  H   -3.876173714  -0.842988496   0.734889600
  H   -3.837883746  -0.539552364  -0.991834701
  H    1.101432038   1.511041312  -0.119218974
  H    2.743233788   2.054750387   0.350188630
  H    2.417787070   1.597976401  -1.309898868
  H    4.206095204  -1.409392727   0.245249560
  H    4.627141970   0.134863641  -0.549618488
  C    2.167733111   1.368547865  -0.270573285
  C    2.560028849  -0.056960577  -0.000415159
  O    1.744699112  -0.959703536   0.030206509
  C    4.022318327  -0.339739330   0.223680993
  H    4.326724893   0.100459173   1.175524603
