19
charge=0 charge_a=0 charge_b=0 selection_a=1-8 selection_b=9-19 scaling=0.95 benchmark_Eint=-10.587 benchmark_unit=kcal/mol group=OH-O
  C   -2.441198890   0.033254533  -0.124921211
  O   -1.931573044  -0.950144385  -0.613235076
  O   -1.748098619   1.022211060   0.441888845
  H   -0.779806185   0.838827019   0.382471585
  C   -3.923988576   0.287688186  -0.084149840
  H   -4.454363731  -0.547613916  -0.527712971
  H   -4.246359137   0.432903241   0.945966783
  H   -4.153250205   1.204469398  -0.626043796
  H    3.325964292   1.639040099   0.448269056
  H    4.409372480   0.807354079  -0.703615219
  H    2.849310329   1.483764681  -1.251886950
  H    0.015002290  -1.771835121   0.028013024
  C    1.515385636  -0.294536834   0.201182287
  O    2.802482633  -0.284949713  -0.154063935
  C    3.378357499   1.003892113  -0.432464712
  C    0.996739752  -1.668762577   0.485940288
  O    0.863424365   0.726847924   0.289085856
  H    0.871767950  -1.770493471   1.564609110
  H    1.681199904  -2.433616690   0.134532704
