18
charge=0 charge_a=0 charge_b=0 selection_a=1-6 selection_b=7-18 scaling=1.05 benchmark_Eint=-7.246 benchmark_unit=kcal/mol group=OH-O
  O    2.818185101  -0.247435532   0.056821956
  H    1.976071503   0.189051577  -0.132132208
  C    3.827908763   0.736443657   0.184968213
  H    4.760728625   0.221949473   0.408679829
  H    3.618208013   1.437366735   0.998851321
  H    3.963948514   1.308008368  -0.738251908
  H   -3.594373195  -0.284690793  -0.549778068
  H   -3.307866437  -0.117148612   1.196759506
  H   -4.056391204   1.219002463   0.286551340
  H    0.681162088  -1.624853883   0.682934829
  H    0.406107758  -1.747335191  -1.062193987
  H   -0.437756649  -2.864714116   0.046166458
  O   -2.074918347   1.044540210  -0.021655948
  C   -0.971265158   0.309461647  -0.132768079
  O    0.099943898   0.811847011  -0.361614385
  O   -1.200487483  -0.995310713   0.031872125
  C   -0.051166353  -1.860309121  -0.083310601
  C   -3.336085144   0.409338530   0.246091855
