20
charge=0 charge_a=0 charge_b=0 selection_a=1-8 selection_b=9-20 scaling=0.85 benchmark_Eint=-10.232 benchmark_unit=kcal/mol group=OH-O
  C   -2.371270412   0.046959600  -0.162595143
  O   -1.841978059  -0.855740425  -0.774433321
  O   -1.708373373   0.946976821   0.557589085
  H   -0.725632203   0.795025476   0.499935338
  C   -3.859380582   0.279978873  -0.129611382
  H   -4.367856202  -0.492441743  -0.696105848
  H   -4.211235755   0.283167467   0.901095092
  H   -4.085534804   1.259156629  -0.550231061
  C    0.764791928  -1.658453943   0.580877174
  H    0.502008359  -1.693476512   1.637304531
  H    1.452946560  -2.471292869   0.358661640
  H   -0.154411568  -1.777745632   0.009014166
  C    1.334680932  -0.301148037   0.271302543
  O    0.688765268   0.736134843   0.427454489
  N    2.600171340  -0.255637189  -0.188316510
  H    3.100441109  -1.115979555  -0.310775164
  C    3.245039060   0.997491040  -0.539507030
  H    3.304926384   1.656149377   0.325250963
  H    4.247886381   0.785733226  -0.898849911
  H    2.685279588   1.513386340  -1.317788702
