14
charge=0 charge_a=0 charge_b=0 selection_a=1-8 selection_b=9-14 scaling=2.0 benchmark_Eint=-1.211 benchmark_unit=kcal/mol group=OH-O
  C   -1.659190287  -0.119450623   0.000000000
  O   -1.072471591  -1.175652992   0.000000000
  O   -1.034427547   1.066927484   0.000000000
  H   -0.067450189   0.922997638   0.000000000
  C   -3.153992278   0.033344436   0.000000000
  H   -3.623728262  -0.943769326   0.000000000
  H   -3.465943175   0.599065081  -0.876891846
  H   -3.465943175   0.599065081   0.876891846
  H    4.677966138  -1.497923612   0.874575483
  H    3.128986470  -1.156695216   0.000000000
  H    4.677966138  -1.497923612  -0.874575483
  C    4.211066286  -1.040274238   0.000000000
  N    4.640461782   0.363791441   0.000000000
  O    3.744008621   1.167743916   0.000000000
