18
charge=0 charge_a=0 charge_b=0 selection_a=1-6 selection_b=7-18 scaling=0.85 benchmark_Eint=-5.317 benchmark_unit=kcal/mol group=OH-O
  O    2.818185101  -0.247435532   0.056821956
  H    1.976071503   0.189051577  -0.132132208
  C    3.827908763   0.736443657   0.184968213
  H    4.760728625   0.221949473   0.408679829
  H    3.618208013   1.437366735   0.998851321
  H    3.963948514   1.308008368  -0.738251908
  H   -3.237015556  -0.403318494  -0.506067177
  H   -2.950508798  -0.235776313   1.240470397
  H   -3.699033565   1.100374762   0.330262231
  H    1.038519727  -1.743481584   0.726645720
  H    0.763465397  -1.865962892  -1.018483096
  H   -0.080399010  -2.983341817   0.089877349
  O   -1.717560708   0.925912509   0.022054943
  C   -0.613907519   0.190833946  -0.089057188
  O    0.457301537   0.693219310  -0.317903494
  O   -0.843129844  -1.113938414   0.075583016
  C    0.306191286  -1.978936822  -0.039599710
  C   -2.978727505   0.290710829   0.289802746
