15
charge=0 charge_a=0 charge_b=0 selection_a=1-8 selection_b=9-15 scaling=2.0 benchmark_Eint=-1.163 benchmark_unit=kcal/mol group=OH-O
  C    2.088996400   0.053952526   0.000000000
  O    1.727947658  -1.098490085   0.000000000
  O    1.229310109   1.087221194   0.000000000
  H    0.324001586   0.732778241   0.000000000
  C    3.517859214   0.513045574   0.000000000
  H    4.179691850  -0.345480947   0.000000000
  H    3.705216031   1.131234327   0.876881860
  H    3.705216031   1.131234327  -0.876881860
  H   -3.739330645  -2.855721686  -0.895853265
  H   -3.739330645  -2.855721686   0.895853265
  H   -2.182749461  -2.799894177   0.000000000
  C   -3.227758829  -2.516547416   0.000000000
  O   -3.207500050  -1.046248829   0.000000000
  C   -4.357482154  -0.469085458   0.000000000
  N   -5.371954313   0.080625559   0.000000000
