15
charge=0 charge_a=0 charge_b=0 selection_a=1-8 selection_b=9-15 scaling=1.05 benchmark_Eint=-6.183 benchmark_unit=kcal/mol group=OH-O
  C    2.088996400   0.053952526   0.000000000
  O    1.727947658  -1.098490085   0.000000000
  O    1.229310109   1.087221194   0.000000000
  H    0.324001586   0.732778241   0.000000000
  C    3.517859214   0.513045574   0.000000000
  H    4.179691850  -0.345480947   0.000000000
  H    3.705216031   1.131234327   0.876881860
  H    3.705216031   1.131234327  -0.876881860
  H   -2.061867368  -2.010683828  -0.895853265
  H   -2.061867368  -2.010683828   0.895853265
  H   -0.505286184  -1.954856319   0.000000000
  C   -1.550295552  -1.671509558   0.000000000
  O   -1.530036773  -0.201210971   0.000000000
  C   -2.680018877   0.375952400   0.000000000
  N   -3.694491036   0.925663417   0.000000000
