15
charge=0 charge_a=0 charge_b=0 selection_a=1-8 selection_b=9-15 scaling=1.5 benchmark_Eint=-4.363 benchmark_unit=kcal/mol group=OH-O
  C   -1.767677914  -0.139527595  -0.024794604
  O   -0.958503235  -1.037022911  -0.069546283
  O   -1.449770761   1.149138368  -0.205387167
  H   -0.489669797   1.223328144  -0.369485660
  C   -3.235149438  -0.322046524   0.240087364
  H   -3.459969775  -1.376326773   0.355585508
  H   -3.513020727   0.219701861   1.143312798
  H   -3.814369555   0.098842568  -0.580416487
  H    3.561800664  -1.119410372  -1.663953509
  H    3.807859772  -1.773592665   0.002927893
  H    2.199146164  -1.867396654  -0.785143205
  C    3.123248814  -1.302098492  -0.690369917
  N    2.709041550   0.008405585  -0.118530985
  O    2.258863610   0.837467598  -0.905386430
  O    2.791731218   0.165806348   1.078733137
