18
charge=0 charge_a=0 charge_b=0 selection_a=1-6 selection_b=7-18 scaling=0.8 benchmark_Eint=-3.083 benchmark_unit=kcal/mol group=OH-O
  O    2.818185101  -0.247435532   0.056821956
  H    1.976071503   0.189051577  -0.132132208
  C    3.827908763   0.736443657   0.184968213
  H    4.760728625   0.221949473   0.408679829
  H    3.618208013   1.437366735   0.998851321
  H    3.963948514   1.308008368  -0.738251908
  H   -3.147676146  -0.432975420  -0.495139454
  H   -2.861169388  -0.265433239   1.251398120
  H   -3.609694155   1.070717836   0.341189954
  H    1.127859137  -1.773138510   0.737573443
  H    0.852804807  -1.895619818  -1.007555373
  H    0.008940400  -3.012998743   0.100805072
  O   -1.628221298   0.896255583   0.032982666
  C   -0.524568109   0.161177020  -0.078129465
  O    0.546640947   0.663562384  -0.306975771
  O   -0.753790434  -1.143595340   0.086510739
  C    0.395530696  -2.008593748  -0.028671987
  C   -2.889388095   0.261053903   0.300730469
