15
charge=0 charge_a=0 charge_b=0 selection_a=1-8 selection_b=9-15 scaling=2.0 benchmark_Eint=-1.795 benchmark_unit=kcal/mol group=OH-O
  C   -1.767677914  -0.139527595  -0.024794604
  O   -0.958503235  -1.037022911  -0.069546283
  O   -1.449770761   1.149138368  -0.205387167
  H   -0.489669797   1.223328144  -0.369485660
  C   -3.235149438  -0.322046524   0.240087364
  H   -3.459969775  -1.376326773   0.355585508
  H   -3.513020727   0.219701861   1.143312798
  H   -3.814369555   0.098842568  -0.580416487
  H    4.477978467  -1.248030554  -1.842587099
  H    4.724037575  -1.902212847  -0.175705697
  H    3.115323967  -1.996016836  -0.963776795
  C    4.039426616  -1.430718674  -0.869003507
  N    3.625219352  -0.120214597  -0.297164575
  O    3.175041413   0.708847416  -1.084020020
  O    3.707909020   0.037186166   0.900099547
