14
charge=0 charge_a=0 charge_b=0 selection_a=1-8 selection_b=9-14 scaling=1.0 benchmark_Eint=-6.643 benchmark_unit=kcal/mol group=OH-O
  C   -1.659190287  -0.119450623   0.000000000
  O   -1.072471591  -1.175652992   0.000000000
  O   -1.034427547   1.066927484   0.000000000
  H   -0.067450189   0.922997638   0.000000000
  C   -3.153992278   0.033344436   0.000000000
  H   -3.623728262  -0.943769326   0.000000000
  H   -3.465943175   0.599065081  -0.876891846
  H   -3.465943175   0.599065081   0.876891846
  H    2.772236733  -1.620296751   0.874575483
  H    1.223257065  -1.279068355   0.000000000
  H    2.772236733  -1.620296751  -0.874575483
  C    2.305336881  -1.162647377   0.000000000
  N    2.734732377   0.241418302   0.000000000
  O    1.838279216   1.045370777   0.000000000
