18
charge=0 charge_a=0 charge_b=0 selection_a=1-6 selection_b=7-18 scaling=1.1 benchmark_Eint=-6.963 benchmark_unit=kcal/mol group=OH-O
  O    2.818185101  -0.247435532   0.056821956
  H    1.976071503   0.189051577  -0.132132208
  C    3.827908763   0.736443657   0.184968213
  H    4.760728625   0.221949473   0.408679829
  H    3.618208013   1.437366735   0.998851321
  H    3.963948514   1.308008368  -0.738251908
  H   -3.683712604  -0.255033867  -0.560705790
  H   -3.397205846  -0.087491686   1.185831784
  H   -4.145730614   1.248659389   0.275623618
  H    0.591822678  -1.595196957   0.672007107
  H    0.316768348  -1.717678265  -1.073121709
  H   -0.527096058  -2.835057190   0.035238736
  O   -2.164257756   1.074197136  -0.032583670
  C   -1.060604568   0.339118573  -0.143695801
  O    0.010604488   0.841503937  -0.372542107
  O   -1.289826892  -0.965653787   0.020944403
  C   -0.140505762  -1.830652195  -0.094238323
  C   -3.425424554   0.438995456   0.235164133
