16
charge=0 charge_a=0 charge_b=0 selection_a=1-6 selection_b=7-16 scaling=1.1 benchmark_Eint=-6.654 benchmark_unit=kcal/mol group=OH-O
  O   -2.078218400  -0.406636970   0.220658442
  H   -1.287163445   0.153861844   0.226683253
  C   -3.184467993   0.356925802  -0.220588799
  H   -4.052691539  -0.299619987  -0.235464679
  H   -3.036726222   0.752119841  -1.230877149
  H   -3.400403579   1.194407390   0.450288533
  H    1.673668662  -1.812503486   0.836240025
  H    0.228744118  -1.562736953  -0.165422632
  H    1.840109522  -1.784786909  -0.907085510
  H    3.038516741   1.663390591   0.092629666
  H    3.593764583   0.046899213   0.607465151
  C    1.288978406  -1.347378201  -0.074101898
  C    1.535048476   0.138092663  -0.001157969
  O    0.630440826   0.936975506   0.132497114
  C    2.968424772   0.596788492  -0.096736402
  H    3.351368394   0.378327428  -1.095524342
