15
charge=0 charge_a=0 charge_b=0 selection_a=1-8 selection_b=9-15 scaling=0.8 benchmark_Eint=-1.631 benchmark_unit=kcal/mol group=OH-O
  C    2.088996400   0.053952526   0.000000000
  O    1.727947658  -1.098490085   0.000000000
  O    1.229310109   1.087221194   0.000000000
  H    0.324001586   0.732778241   0.000000000
  C    3.517859214   0.513045574   0.000000000
  H    4.179691850  -0.345480947   0.000000000
  H    3.705216031   1.131234327   0.876881860
  H    3.705216031   1.131234327  -0.876881860
  H   -1.620429663  -1.788305444  -0.895853265
  H   -1.620429663  -1.788305444   0.895853265
  H   -0.063848479  -1.732477935   0.000000000
  C   -1.108857847  -1.449131174   0.000000000
  O   -1.088599068   0.021167413   0.000000000
  C   -2.238581172   0.598330784   0.000000000
  N   -3.253053331   1.148041801   0.000000000
