13
charge=0 charge_a=0 charge_b=0 selection_a=1-6 selection_b=7-13 scaling=1.25 benchmark_Eint=-5.004 benchmark_unit=kcal/mol group=OH-O
  O    1.469321090  -0.481309455   0.000000000
  H    0.791535506   0.209758574   0.000000000
  C    2.752614712   0.116432450   0.000000000
  H    3.487671960  -0.686242312   0.000000000
  H    2.919026064   0.733550505   0.888318259
  H    2.919026064   0.733550505  -0.888318259
  H   -2.759573044  -1.264761550   0.874460917
  H   -2.759573044  -1.264761550  -0.874460917
  H   -1.199249467  -1.252033150   0.000000000
  H   -3.299681595   1.041944560   0.000000000
  C   -2.222963412  -0.889012612   0.000000000
  C   -2.283066696   0.604634934   0.000000000
  O   -1.324587694   1.339929522   0.000000000
