15
charge=0 charge_a=0 charge_b=0 selection_a=1-8 selection_b=9-15 scaling=0.95 benchmark_Eint=-8.950 benchmark_unit=kcal/mol group=OH-O
  C   -1.767677914  -0.139527595  -0.024794604
  O   -0.958503235  -1.037022911  -0.069546283
  O   -1.449770761   1.149138368  -0.205387167
  H   -0.489669797   1.223328144  -0.369485660
  C   -3.235149438  -0.322046524   0.240087364
  H   -3.459969775  -1.376326773   0.355585508
  H   -3.513020727   0.219701861   1.143312798
  H   -3.814369555   0.098842568  -0.580416487
  H    2.554005082  -0.977928172  -1.467456560
  H    2.800064190  -1.632110465   0.199424842
  H    1.191350582  -1.725914454  -0.588646256
  C    2.115453231  -1.160616292  -0.493872968
  N    1.701245967   0.149887785   0.077965964
  O    1.251068028   0.978949798  -0.708889481
  O    1.783935635   0.307288548   1.275230086
