15
charge=0 charge_a=0 charge_b=0 selection_a=1-8 selection_b=9-15 scaling=1.1 benchmark_Eint=-5.890 benchmark_unit=kcal/mol group=OH-O
  C    2.088996400   0.053952526   0.000000000
  O    1.727947658  -1.098490085   0.000000000
  O    1.229310109   1.087221194   0.000000000
  H    0.324001586   0.732778241   0.000000000
  C    3.517859214   0.513045574   0.000000000
  H    4.179691850  -0.345480947   0.000000000
  H    3.705216031   1.131234327   0.876881860
  H    3.705216031   1.131234327  -0.876881860
  H   -2.150154909  -2.055159504  -0.895853265
  H   -2.150154909  -2.055159504   0.895853265
  H   -0.593573725  -1.999331996   0.000000000
  C   -1.638583093  -1.715985234   0.000000000
  O   -1.618324314  -0.245686648   0.000000000
  C   -2.768306418   0.331476724   0.000000000
  N   -3.782778577   0.881187740   0.000000000
