14
charge=0 charge_a=0 charge_b=0 selection_a=1-6 selection_b=7-14 scaling=1.1 benchmark_Eint=-6.322 benchmark_unit=kcal/mol group=OH-O
  O   -2.080722411   0.374743458  -0.277017255
  H   -1.318026211  -0.220847417  -0.258404267
  C   -3.208308312  -0.296934856   0.253406800
  H   -4.042554777   0.401947625   0.239673618
  H   -3.484170341  -1.171366492  -0.343950304
  H   -3.047691552  -0.619156781   1.287120547
  H    2.859195242  -1.424165933   0.036823419
  H    0.198196937   1.552481782   0.103121090
  H    1.752678910   1.747439104   0.964306249
  H    1.717440649   1.811499600  -0.788423734
  O    0.634800828  -0.984920104  -0.112723900
  C    1.488778318  -0.138325642   0.012875691
  O    2.794061022  -0.460930626   0.099737896
  C    1.261531281   1.340408893   0.082162824
