20
charge=0 charge_a=0 charge_b=0 selection_a=1-8 selection_b=9-20 scaling=1.5 benchmark_Eint=-7.229 benchmark_unit=kcal/mol group=OH-O
  C   -2.371270412   0.046959600  -0.162595143
  O   -1.841978059  -0.855740425  -0.774433321
  O   -1.708373373   0.946976821   0.557589085
  H   -0.725632203   0.795025476   0.499935338
  C   -3.859380582   0.279978873  -0.129611382
  H   -4.367856202  -0.492441743  -0.696105848
  H   -4.211235755   0.283167467   0.901095092
  H   -4.085534804   1.259156629  -0.550231061
  C    1.846389994  -1.703487957   0.525450642
  H    1.583606426  -1.738510526   1.581878000
  H    2.534544626  -2.516326883   0.303235108
  H    0.927186498  -1.822779646  -0.046412366
  C    2.416278998  -0.346182051   0.215876012
  O    1.770363334   0.691100829   0.372027958
  N    3.681769406  -0.300671203  -0.243743042
  H    4.182039176  -1.161013569  -0.366201696
  C    4.326637126   0.952457026  -0.594933562
  H    4.386524450   1.611115363   0.269824432
  H    5.329484448   0.740699212  -0.954276442
  H    3.766877654   1.468352326  -1.373215234
