16
charge=0 charge_a=0 charge_b=0 selection_a=1-6 selection_b=7-16 scaling=1.5 benchmark_Eint=-3.435 benchmark_unit=kcal/mol group=OH-O
  O   -2.078218400  -0.406636970   0.220658442
  H   -1.287163445   0.153861844   0.226683253
  C   -3.184467993   0.356925802  -0.220588799
  H   -4.052691539  -0.299619987  -0.235464679
  H   -3.036726222   0.752119841  -1.230877149
  H   -3.400403579   1.194407390   0.450288533
  H    2.370979306  -1.527734882   0.801990520
  H    0.926054762  -1.277968348  -0.199672138
  H    2.537420166  -1.500018304  -0.941335016
  H    3.735827385   1.948159196   0.058380160
  H    4.291075227   0.331667818   0.573215646
  C    1.986289050  -1.062609596  -0.108351404
  C    2.232359120   0.422861268  -0.035407474
  O    1.327751470   1.221744110   0.098247608
  C    3.665735416   0.881557096  -0.130985908
  H    4.048679038   0.663096032  -1.129773848
