15
charge=0 charge_a=0 charge_b=0 selection_a=1-8 selection_b=9-15 scaling=1.0 benchmark_Eint=-6.303 benchmark_unit=kcal/mol group=OH-O
  C    2.088996400   0.053952526   0.000000000
  O    1.727947658  -1.098490085   0.000000000
  O    1.229310109   1.087221194   0.000000000
  H    0.324001586   0.732778241   0.000000000
  C    3.517859214   0.513045574   0.000000000
  H    4.179691850  -0.345480947   0.000000000
  H    3.705216031   1.131234327   0.876881860
  H    3.705216031   1.131234327  -0.876881860
  H   -1.973579827  -1.966208151  -0.895853265
  H   -1.973579827  -1.966208151   0.895853265
  H   -0.416998643  -1.910380642   0.000000000
  C   -1.462008011  -1.627033881   0.000000000
  O   -1.441749232  -0.156735294   0.000000000
  C   -2.591731336   0.420428077   0.000000000
  N   -3.606203495   0.970139094   0.000000000
