15
charge=0 charge_a=0 charge_b=0 selection_a=1-6 selection_b=7-15 scaling=1.05 benchmark_Eint=-7.892 benchmark_unit=kcal/mol group=OH-O
  O    2.086138680   0.036875492  -0.640328801
  H    1.254507692   0.488108996  -0.419264519
  C    2.896636269   0.005598133   0.516670310
  H    3.809307845  -0.533808290   0.268209454
  H    2.409354595  -0.513671280   1.349953454
  H    3.173247693   1.009378863   0.854756922
  H   -3.384930799  -0.418323911   0.054189663
  H   -3.022830063   1.273390737   0.106871998
  H   -0.042033412  -1.482255782  -0.529908637
  H   -1.733248741  -2.029005216  -0.372901311
  H   -0.760511044  -1.686758319   1.062284139
  O   -0.562153061   0.990043835   0.059221402
  C   -1.374366963   0.075739904   0.047551515
  N   -2.707377425   0.319661199   0.074155412
  C   -0.963390703  -1.377835759   0.036201261
