15
charge=0 charge_a=0 charge_b=0 selection_a=1-8 selection_b=9-15 scaling=1.0 benchmark_Eint=-9.112 benchmark_unit=kcal/mol group=OH-O
  C   -1.767677914  -0.139527595  -0.024794604
  O   -0.958503235  -1.037022911  -0.069546283
  O   -1.449770761   1.149138368  -0.205387167
  H   -0.489669797   1.223328144  -0.369485660
  C   -3.235149438  -0.322046524   0.240087364
  H   -3.459969775  -1.376326773   0.355585508
  H   -3.513020727   0.219701861   1.143312798
  H   -3.814369555   0.098842568  -0.580416487
  H    2.645622862  -0.990790190  -1.485319919
  H    2.891681970  -1.644972483   0.181561483
  H    1.282968362  -1.738776472  -0.606509615
  C    2.207071011  -1.173478310  -0.511736327
  N    1.792863747   0.137025767   0.060102605
  O    1.342685808   0.966087780  -0.726752840
  O    1.875553415   0.294426530   1.257366727
