14
charge=0 charge_a=0 charge_b=0 selection_a=1-8 selection_b=9-14 scaling=0.85 benchmark_Eint=-4.118 benchmark_unit=kcal/mol group=OH-O
  C   -1.659190287  -0.119450623   0.000000000
  O   -1.072471591  -1.175652992   0.000000000
  O   -1.034427547   1.066927484   0.000000000
  H   -0.067450189   0.922997638   0.000000000
  C   -3.153992278   0.033344436   0.000000000
  H   -3.623728262  -0.943769326   0.000000000
  H   -3.465943175   0.599065081  -0.876891846
  H   -3.465943175   0.599065081   0.876891846
  H    2.486377322  -1.638652722   0.874575483
  H    0.937397654  -1.297424326   0.000000000
  H    2.486377322  -1.638652722  -0.874575483
  C    2.019477470  -1.181003348   0.000000000
  N    2.448872966   0.223062331   0.000000000
  O    1.552419805   1.027014806   0.000000000
