18
charge=0 charge_a=0 charge_b=0 selection_a=1-6 selection_b=7-18 scaling=2.0 benchmark_Eint=-1.513 benchmark_unit=kcal/mol group=OH-O
  O    2.818185101  -0.247435532   0.056821956
  H    1.976071503   0.189051577  -0.132132208
  C    3.827908763   0.736443657   0.184968213
  H    4.760728625   0.221949473   0.408679829
  H    3.618208013   1.437366735   0.998851321
  H    3.963948514   1.308008368  -0.738251908
  H   -5.291821980   0.278790791  -0.757404799
  H   -5.005315222   0.446332972   0.989132775
  H   -5.753839989   1.782484047   0.078924609
  H   -1.016286697  -1.061372299   0.475308098
  H   -1.291341027  -1.183853607  -1.269820718
  H   -2.135205434  -2.301232532  -0.161460273
  O   -3.772367132   1.608021794  -0.229282679
  C   -2.668713943   0.872943231  -0.340394810
  O   -1.597504887   1.375328595  -0.569241116
  O   -2.897936268  -0.431829129  -0.175754606
  C   -1.748615138  -1.296827537  -0.290937332
  C   -5.033533929   0.972820114   0.038465124
