18
charge=0 charge_a=0 charge_b=0 selection_a=1-6 selection_b=7-18 scaling=1.0 benchmark_Eint=-7.356 benchmark_unit=kcal/mol group=OH-O
  O    2.818185101  -0.247435532   0.056821956
  H    1.976071503   0.189051577  -0.132132208
  C    3.827908763   0.736443657   0.184968213
  H    4.760728625   0.221949473   0.408679829
  H    3.618208013   1.437366735   0.998851321
  H    3.963948514   1.308008368  -0.738251908
  H   -3.505033785  -0.314347718  -0.538850345
  H   -3.218527027  -0.146805537   1.207687229
  H   -3.967051794   1.189345538   0.297479063
  H    0.770501498  -1.654510808   0.693862552
  H    0.495447168  -1.776992116  -1.051266264
  H   -0.348417239  -2.894371041   0.057094181
  O   -1.985578937   1.014883285  -0.010728225
  C   -0.881925748   0.279804722  -0.121840356
  O    0.189283308   0.782190086  -0.350686662
  O   -1.111148073  -1.024967638   0.042799848
  C    0.038173057  -1.889966046  -0.072382878
  C   -3.246745734   0.379681605   0.257019578
