11
charge=0 charge_a=0 charge_b=0 selection_a=1-8 selection_b=9-11 scaling=1.25 benchmark_Eint=-8.747 benchmark_unit=kcal/mol group=OH-O
  C   -0.681021530  -0.079730445   0.005766635
  O   -0.074687326  -1.132806626   0.009019329
  O   -0.080823006   1.111996454   0.012203343
  H    0.895181876   0.971974145   0.015914127
  C   -2.177760208   0.029957279  -0.008482472
  H   -2.621201172  -0.959051364   0.014511782
  H   -2.512713221   0.613442580   0.847805271
  H   -2.495080505   0.560728752  -0.905233617
  O    2.802086434  -0.202133475  -0.078166594
  H    3.411354016  -0.289655704   0.658369772
  H    2.194439550  -0.962522010  -0.031421319
