14
charge=0 charge_a=0 charge_b=0 selection_a=1-6 selection_b=7-14 scaling=1.25 benchmark_Eint=-5.097 benchmark_unit=kcal/mol group=OH-O
  O   -2.080722411   0.374743458  -0.277017255
  H   -1.318026211  -0.220847417  -0.258404267
  C   -3.208308312  -0.296934856   0.253406800
  H   -4.042554777   0.401947625   0.239673618
  H   -3.484170341  -1.171366492  -0.343950304
  H   -3.047691552  -0.619156781   1.287120547
  H    3.125489838  -1.528357664   0.056688923
  H    0.464491533   1.448290052   0.122986594
  H    2.018973506   1.643247374   0.984171753
  H    1.983735245   1.707307870  -0.768558230
  O    0.901095424  -1.089111834  -0.092858396
  C    1.755072914  -0.242517372   0.032741195
  O    3.060355618  -0.565122356   0.119603400
  C    1.527825877   1.236217162   0.102028328
