14
charge=0 charge_a=0 charge_b=0 selection_a=1-6 selection_b=7-14 scaling=1.05 benchmark_Eint=-6.593 benchmark_unit=kcal/mol group=OH-O
  O   -2.080722411   0.374743458  -0.277017255
  H   -1.318026211  -0.220847417  -0.258404267
  C   -3.208308312  -0.296934856   0.253406800
  H   -4.042554777   0.401947625   0.239673618
  H   -3.484170341  -1.171366492  -0.343950304
  H   -3.047691552  -0.619156781   1.287120547
  H    2.770430376  -1.389435357   0.030201584
  H    0.109432071   1.587212358   0.096499255
  H    1.663914044   1.782169680   0.957684414
  H    1.628675783   1.846230176  -0.795045569
  O    0.546035962  -0.950189528  -0.119345735
  C    1.400013452  -0.103595066   0.006253856
  O    2.705296156  -0.426200050   0.093116061
  C    1.172766415   1.375139469   0.075540989
