20
charge=0 charge_a=0 charge_b=0 selection_a=1-8 selection_b=9-20 scaling=1.25 benchmark_Eint=-10.815 benchmark_unit=kcal/mol group=OH-O
  C   -2.371270412   0.046959600  -0.162595143
  O   -1.841978059  -0.855740425  -0.774433321
  O   -1.708373373   0.946976821   0.557589085
  H   -0.725632203   0.795025476   0.499935338
  C   -3.859380582   0.279978873  -0.129611382
  H   -4.367856202  -0.492441743  -0.696105848
  H   -4.211235755   0.283167467   0.901095092
  H   -4.085534804   1.259156629  -0.550231061
  C    1.430390738  -1.686167182   0.546768539
  H    1.167607169  -1.721189752   1.603195896
  H    2.118545370  -2.499006108   0.324553005
  H    0.511187242  -1.805458872  -0.025094469
  C    2.000279742  -0.328861276   0.237193908
  O    1.354364078   0.708421604   0.393345854
  N    3.265770150  -0.283350428  -0.222425145
  H    3.766039919  -1.143692794  -0.344883799
  C    3.910637870   0.969777800  -0.573615665
  H    3.970525194   1.628436138   0.291142328
  H    4.913485191   0.758019986  -0.932958546
  H    3.350878398   1.485673100  -1.351897337
