16
charge=0 charge_a=0 charge_b=0 selection_a=1-6 selection_b=7-16 scaling=1.25 benchmark_Eint=-5.415 benchmark_unit=kcal/mol group=OH-O
  O   -2.078218400  -0.406636970   0.220658442
  H   -1.287163445   0.153861844   0.226683253
  C   -3.184467993   0.356925802  -0.220588799
  H   -4.052691539  -0.299619987  -0.235464679
  H   -3.036726222   0.752119841  -1.230877149
  H   -3.400403579   1.194407390   0.450288533
  H    1.935160154  -1.705715259   0.823396460
  H    0.490235610  -1.455948726  -0.178266197
  H    2.101601014  -1.677998682  -0.919929075
  H    3.300008232   1.770178818   0.079786101
  H    3.855256074   0.153687440   0.594621586
  C    1.550469898  -1.240589974  -0.086945463
  C    1.796539968   0.244880890  -0.014001534
  O    0.891932318   1.043763733   0.119653549
  C    3.229916264   0.703576719  -0.109579967
  H    3.612859886   0.485115655  -1.108367907
