14
charge=0 charge_a=0 charge_b=0 selection_a=1-6 selection_b=7-14 scaling=0.9 benchmark_Eint=-5.892 benchmark_unit=kcal/mol group=OH-O
  O   -2.080722411   0.374743458  -0.277017255
  H   -1.318026211  -0.220847417  -0.258404267
  C   -3.208308312  -0.296934856   0.253406800
  H   -4.042554777   0.401947625   0.239673618
  H   -3.484170341  -1.171366492  -0.343950304
  H   -3.047691552  -0.619156781   1.287120547
  H    2.504135780  -1.285243627   0.010336079
  H   -0.156862525   1.691404088   0.076633750
  H    1.397619448   1.886361410   0.937818909
  H    1.362381187   1.950421906  -0.814911074
  O    0.279741366  -0.845997798  -0.139211240
  C    1.133718856   0.000596664  -0.013611649
  O    2.439001560  -0.322008320   0.073250556
  C    0.906471819   1.479331199   0.055675484
