13
charge=0 charge_a=0 charge_b=0 selection_a=1-6 selection_b=7-13 scaling=0.8 benchmark_Eint=-2.387 benchmark_unit=kcal/mol group=OH-O
  O    1.469321090  -0.481309455   0.000000000
  H    0.791535506   0.209758574   0.000000000
  C    2.752614712   0.116432450   0.000000000
  H    3.487671960  -0.686242312   0.000000000
  H    2.919026064   0.733550505   0.888318259
  H    2.919026064   0.733550505  -0.888318259
  H   -1.997768692  -1.671623092   0.874460917
  H   -1.997768692  -1.671623092  -0.874460917
  H   -0.437445115  -1.658894692   0.000000000
  H   -2.537877243   0.635083019   0.000000000
  C   -1.461159060  -1.295874154   0.000000000
  C   -1.521262344   0.197773392   0.000000000
  O   -0.562783342   0.933067980   0.000000000
