15
charge=0 charge_a=0 charge_b=0 selection_a=1-8 selection_b=9-15 scaling=0.95 benchmark_Eint=-6.129 benchmark_unit=kcal/mol group=OH-O
  C    2.088996400   0.053952526   0.000000000
  O    1.727947658  -1.098490085   0.000000000
  O    1.229310109   1.087221194   0.000000000
  H    0.324001586   0.732778241   0.000000000
  C    3.517859214   0.513045574   0.000000000
  H    4.179691850  -0.345480947   0.000000000
  H    3.705216031   1.131234327   0.876881860
  H    3.705216031   1.131234327  -0.876881860
  H   -1.885292286  -1.921732474  -0.895853265
  H   -1.885292286  -1.921732474   0.895853265
  H   -0.328711102  -1.865904965   0.000000000
  C   -1.373720470  -1.582558204   0.000000000
  O   -1.353461691  -0.112259617   0.000000000
  C   -2.503443795   0.464903754   0.000000000
  N   -3.517915954   1.014614771   0.000000000
