13
charge=0 charge_a=0 charge_b=0 selection_a=1-6 selection_b=7-13 scaling=1.25 benchmark_Eint=-4.609 benchmark_unit=kcal/mol group=OH-O
  O   -2.033801120  -0.367838982   0.143631812
  H   -1.354642634   0.288948179   0.339232156
  C   -3.222112874   0.288656615  -0.270899880
  H   -3.953989435  -0.482557613  -0.500340226
  H   -3.063664480   0.893437237  -1.167950974
  H   -3.629650024   0.927772303   0.516891414
  H    0.453348761  -1.265746120  -0.298197080
  H    1.498840394  -1.478540814   1.119033566
  H    2.188098399  -1.748765794  -0.509400564
  C    1.470019976  -1.186471016   0.072557245
  N    1.869152504   0.254712647   0.025377042
  O    1.033830710   1.079563968   0.375700455
  O    2.996652841   0.523054879  -0.333281714
