17
charge=0 charge_a=0 charge_b=0 selection_a=1-6 selection_b=7-17 scaling=0.95 benchmark_Eint=-6.820 benchmark_unit=kcal/mol group=OH-O
  O    2.388680733   0.327663734   0.000000000
  H    1.537962776  -0.132351328   0.000000000
  C    3.428661986  -0.632073870   0.000000000
  H    4.373781030  -0.091970573   0.000000000
  H    3.399035303  -1.271319579  -0.888004961
  H    3.399035303  -1.271319579   0.888004961
  H    0.206630578   1.692504583   0.884415489
  H   -0.833784404   2.842941673   0.000000000
  H    0.206630578   1.692504583  -0.884415489
  H   -3.109041392  -0.950862659  -0.877420088
  C   -1.255974502  -0.361110236   0.000000000
  O   -1.530766184   0.946589338   0.000000000
  C   -0.405225734   1.847350488   0.000000000
  C   -2.509558900  -1.188564183   0.000000000
  O   -0.134022166  -0.814101550   0.000000000
  H   -2.251422216  -2.241587523   0.000000000
  H   -3.109041392  -0.950862659   0.877420088
