13
charge=0 charge_a=0 charge_b=0 selection_a=1-6 selection_b=7-13 scaling=0.9 benchmark_Eint=-5.436 benchmark_unit=kcal/mol group=OH-O
  O   -2.033801120  -0.367838982   0.143631812
  H   -1.354642634   0.288948179   0.339232156
  C   -3.222112874   0.288656615  -0.270899880
  H   -3.953989435  -0.482557613  -0.500340226
  H   -3.063664480   0.893437237  -1.167950974
  H   -3.629650024   0.927772303   0.516891414
  H   -0.215423776  -1.487118541  -0.308408204
  H    0.830067858  -1.699913235   1.108822442
  H    1.519325862  -1.970138215  -0.519611688
  C    0.801247440  -1.407843437   0.062346121
  N    1.200379968   0.033340226   0.015165918
  O    0.365058174   0.858191547   0.365489331
  O    2.327880304   0.301682458  -0.343492838
