18
charge=0 charge_a=0 charge_b=0 selection_a=1-6 selection_b=7-18 scaling=0.95 benchmark_Eint=-8.440 benchmark_unit=kcal/mol group=OH-O
  O   -2.330700249   0.328801354   0.000000000
  H   -1.463543736  -0.108509401   0.000000000
  C   -3.337457861  -0.662813388   0.000000000
  H   -4.301785995  -0.156616591   0.000000000
  H   -3.286887585  -1.302362372   0.887444105
  H   -3.286887585  -1.302362372  -0.887444105
  C    2.481815671  -1.237528729   0.000000000
  H    2.445457220  -1.879914658   0.877773548
  H    2.445457220  -1.879914658  -0.877773548
  H    3.419314371  -0.685144583   0.000000000
  C    1.258261967  -0.350326473   0.000000000
  O    0.129371315  -0.828937856   0.000000000
  N    1.480154526   0.980637152   0.000000000
  H    2.427521578   1.309019718   0.000000000
  C    0.397579673   1.952746262   0.000000000
  H   -0.233811243   1.833533301   0.878062348
  H   -0.233811243   1.833533301  -0.878062348
  H    0.827667063   2.950014157   0.000000000
