13
charge=0 charge_a=0 charge_b=0 selection_a=1-6 selection_b=7-13 scaling=0.95 benchmark_Eint=-6.007 benchmark_unit=kcal/mol group=OH-O
  O   -2.033801120  -0.367838982   0.143631812
  H   -1.354642634   0.288948179   0.339232156
  C   -3.222112874   0.288656615  -0.270899880
  H   -3.953989435  -0.482557613  -0.500340226
  H   -3.063664480   0.893437237  -1.167950974
  H   -3.629650024   0.927772303   0.516891414
  H   -0.119884842  -1.455493910  -0.306949472
  H    0.925606791  -1.668288604   1.110281174
  H    1.614864796  -1.938513584  -0.518152956
  C    0.896786373  -1.376218806   0.063804853
  N    1.295918901   0.064964857   0.016624650
  O    0.460597107   0.889816178   0.366948063
  O    2.423419238   0.333307089  -0.342034106
