12
charge=0 charge_a=0 charge_b=0 selection_a=1-6 selection_b=7-12 scaling=1.05 benchmark_Eint=-5.778 benchmark_unit=kcal/mol group=OH-O
  O    1.314820958  -0.412457918  -0.489820465
  H    0.450880825   0.014371030  -0.399320006
  C    2.216978094   0.189483065   0.418542323
  H    3.175611578  -0.315213487   0.312205478
  H    1.889448906   0.084861602   1.458255496
  H    2.366309090   1.253907523   0.209865811
  O   -1.405961387   0.656896495  -0.136459276
  H   -1.796677809   1.068522628  -0.910427246
  C   -2.230552445  -0.429981062   0.288308187
  H   -1.734026348  -0.881574305   1.142343685
  H   -2.335963843  -1.184609755  -0.492896856
  H   -3.217980866  -0.081888827   0.596163410
