17
charge=0 charge_a=0 charge_b=0 selection_a=1-6 selection_b=7-17 scaling=0.9 benchmark_Eint=-6.223 benchmark_unit=kcal/mol group=OH-O
  O    2.388680733   0.327663734   0.000000000
  H    1.537962776  -0.132351328   0.000000000
  C    3.428661986  -0.632073870   0.000000000
  H    4.373781030  -0.091970573   0.000000000
  H    3.399035303  -1.271319579  -0.888004961
  H    3.399035303  -1.271319579   0.888004961
  H    0.294629786   1.728386173   0.884415489
  H   -0.745785197   2.878823263   0.000000000
  H    0.294629786   1.728386173  -0.884415489
  H   -3.021042184  -0.914981069  -0.877420088
  C   -1.167975294  -0.325228646   0.000000000
  O   -1.442766977   0.982470928   0.000000000
  C   -0.317226527   1.883232078   0.000000000
  C   -2.421559693  -1.152682593   0.000000000
  O   -0.046022959  -0.778219960   0.000000000
  H   -2.163423008  -2.205705933   0.000000000
  H   -3.021042184  -0.914981069   0.877420088
