19
charge=0 charge_a=0 charge_b=0 selection_a=1-6 selection_b=7-19 scaling=2.0 benchmark_Eint=-0.857 benchmark_unit=kcal/mol group=OH-O
  O    3.155324976  -0.205045800  -0.391889929
  H    2.485897861   0.483320662  -0.474612775
  C    3.165951540  -0.651469314   0.952974816
  H    3.890099794  -1.460681857   1.020957881
  H    2.189716241  -1.034277025   1.266410092
  H    3.468500034   0.138955452   1.646913189
  H   -1.067201662  -0.049088788  -0.921635196
  H   -5.122928496  -0.648749827   0.360918621
  H   -3.020901215  -1.540168301  -0.597911623
  H   -3.314115937   3.224459618   0.667280709
  H   -1.146865011   3.352984353  -0.065673531
  H   -5.259619711   1.742182022   0.991021816
  C   -4.271780437   0.000526969   0.218828608
  C   -3.090326082  -0.498256066  -0.319551863
  C   -1.991100711   0.327011212  -0.507029835
  C   -2.080925464   1.666811769  -0.148055415
  C   -3.254359281   2.179176977   0.391087128
  C   -4.347853697   1.341119787   0.571958124
  O   -0.969466177   2.451375588  -0.345942429
