19
charge=0 charge_a=0 charge_b=0 selection_a=1-6 selection_b=7-19 scaling=1.1 benchmark_Eint=-4.962 benchmark_unit=kcal/mol group=OH-O
  O    3.155324976  -0.205045800  -0.391889929
  H    2.485897861   0.483320662  -0.474612775
  C    3.165951540  -0.651469314   0.952974816
  H    3.890099794  -1.460681857   1.020957881
  H    2.189716241  -1.034277025   1.266410092
  H    3.468500034   0.138955452   1.646913189
  H    0.487712155  -0.934713505  -0.979536852
  H   -3.568014679  -1.534374544   0.303016965
  H   -1.465987398  -2.425793018  -0.655813279
  H   -1.759202120   2.338834901   0.609379053
  H    0.408048806   2.467359636  -0.123575187
  H   -3.704705894   0.856557305   0.933120160
  C   -2.716866620  -0.885097748   0.160926952
  C   -1.535412265  -1.383880783  -0.377453519
  C   -0.436186894  -0.558613505  -0.564931491
  C   -0.526011647   0.781187052  -0.205957071
  C   -1.699445464   1.293552260   0.333185472
  C   -2.792939880   0.455495070   0.514056468
  O    0.585447640   1.565750871  -0.403844085
