18
charge=0 charge_a=0 charge_b=0 selection_a=1-6 selection_b=7-18 scaling=0.85 benchmark_Eint=-6.385 benchmark_unit=kcal/mol group=OH-O
  O   -2.330700249   0.328801354   0.000000000
  H   -1.463543736  -0.108509401   0.000000000
  C   -3.337457861  -0.662813388   0.000000000
  H   -4.301785995  -0.156616591   0.000000000
  H   -3.286887585  -1.302362372   0.887444105
  H   -3.286887585  -1.302362372  -0.887444105
  C    2.314140402  -1.161694155   0.000000000
  H    2.277781951  -1.804080084   0.877773548
  H    2.277781951  -1.804080084  -0.877773548
  H    3.251639102  -0.609310009   0.000000000
  C    1.090586698  -0.274491899   0.000000000
  O   -0.038303954  -0.753103282   0.000000000
  N    1.312479257   1.056471726   0.000000000
  H    2.259846309   1.384854292   0.000000000
  C    0.229904404   2.028580836   0.000000000
  H   -0.401486512   1.909367875   0.878062348
  H   -0.401486512   1.909367875  -0.878062348
  H    0.659991794   3.025848731   0.000000000
