18
charge=0 charge_a=0 charge_b=0 selection_a=1-6 selection_b=7-18 scaling=1.5 benchmark_Eint=-4.484 benchmark_unit=kcal/mol group=OH-O
  O   -2.330700249   0.328801354   0.000000000
  H   -1.463543736  -0.108509401   0.000000000
  C   -3.337457861  -0.662813388   0.000000000
  H   -4.301785995  -0.156616591   0.000000000
  H   -3.286887585  -1.302362372   0.887444105
  H   -3.286887585  -1.302362372  -0.887444105
  C    3.404029648  -1.654618887   0.000000000
  H    3.367671196  -2.297004816   0.877773548
  H    3.367671196  -2.297004816  -0.877773548
  H    4.341528348  -1.102234741   0.000000000
  C    2.180475944  -0.767416631   0.000000000
  O    1.051585292  -1.246028014   0.000000000
  N    2.402368502   0.563546994   0.000000000
  H    3.349735554   0.891929560   0.000000000
  C    1.319793650   1.535656104   0.000000000
  H    0.688402734   1.416443143   0.878062348
  H    0.688402734   1.416443143  -0.878062348
  H    1.749881040   2.532923999   0.000000000
