15
charge=0 charge_a=0 charge_b=0 selection_a=1-6 selection_b=7-15 scaling=1.0 benchmark_Eint=-4.022 benchmark_unit=kcal/mol group=OH-O
  O    2.559043225   0.253918837   0.353749621
  H    1.718237081   0.311084953   0.816533698
  C    2.344280848  -0.456508467  -0.855381913
  H    3.280037231  -0.438887615  -1.409786999
  H    1.567367574   0.006087884  -1.470720533
  H    2.069169354  -1.500067274  -0.675346122
  H   -2.325212382   0.940818490  -1.636657025
  H   -2.440596548  -1.641228889  -0.739700145
  H   -0.503423077   2.152428182   0.006673249
  H   -0.680114539  -1.715078520   1.352982228
  C   -1.835537496  -0.842766417  -0.349813563
  C   -1.775269806   0.510052526  -0.819562365
  C   -0.883018823   1.148924746  -0.028597762
  O   -0.382401950   0.287842808   0.905580975
  C   -0.975313531  -0.923204334   0.691012903
