15
charge=0 charge_a=0 charge_b=0 selection_a=1-6 selection_b=7-15 scaling=1.1 benchmark_Eint=-3.695 benchmark_unit=kcal/mol group=OH-O
  O    2.559043225   0.253918837   0.353749621
  H    1.718237081   0.311084953   0.816533698
  C    2.344280848  -0.456508467  -0.855381913
  H    3.280037231  -0.438887615  -1.409786999
  H    1.567367574   0.006087884  -1.470720533
  H    2.069169354  -1.500067274  -0.675346122
  H   -2.535276285   0.938494276  -1.627752297
  H   -2.650660451  -1.643553104  -0.730795417
  H   -0.713486980   2.150103968   0.015577977
  H   -0.890178442  -1.717402734   1.361886956
  C   -2.045601399  -0.845090632  -0.340908835
  C   -1.985333709   0.507728312  -0.810657637
  C   -1.093082726   1.146600532  -0.019693034
  O   -0.592465853   0.285518594   0.914485703
  C   -1.185377434  -0.925528548   0.699917631
