18
charge=0 charge_a=0 charge_b=0 selection_a=1-6 selection_b=7-18 scaling=1.1 benchmark_Eint=-8.222 benchmark_unit=kcal/mol group=OH-O
  O   -2.330700249   0.328801354   0.000000000
  H   -1.463543736  -0.108509401   0.000000000
  C   -3.337457861  -0.662813388   0.000000000
  H   -4.301785995  -0.156616591   0.000000000
  H   -3.286887585  -1.302362372   0.887444105
  H   -3.286887585  -1.302362372  -0.887444105
  C    2.733328574  -1.351280590   0.000000000
  H    2.696970122  -1.993666519   0.877773548
  H    2.696970122  -1.993666519  -0.877773548
  H    3.670827274  -0.798896444   0.000000000
  C    1.509774870  -0.464078334   0.000000000
  O    0.380884218  -0.942689717   0.000000000
  N    1.731667428   0.866885291   0.000000000
  H    2.679034480   1.195267857   0.000000000
  C    0.649092576   1.838994401   0.000000000
  H    0.017701660   1.719781440   0.878062348
  H    0.017701660   1.719781440  -0.878062348
  H    1.079179966   2.836262296   0.000000000
