18
charge=0 charge_a=0 charge_b=0 selection_a=1-6 selection_b=7-18 scaling=0.9 benchmark_Eint=-7.767 benchmark_unit=kcal/mol group=OH-O
  O   -2.330700249   0.328801354   0.000000000
  H   -1.463543736  -0.108509401   0.000000000
  C   -3.337457861  -0.662813388   0.000000000
  H   -4.301785995  -0.156616591   0.000000000
  H   -3.286887585  -1.302362372   0.887444105
  H   -3.286887585  -1.302362372  -0.887444105
  C    2.397978036  -1.199611442   0.000000000
  H    2.361619586  -1.841997371   0.877773548
  H    2.361619586  -1.841997371  -0.877773548
  H    3.335476736  -0.647227296   0.000000000
  C    1.174424332  -0.312409186   0.000000000
  O    0.045533680  -0.791020569   0.000000000
  N    1.396316892   1.018554439   0.000000000
  H    2.343683944   1.346937005   0.000000000
  C    0.313742038   1.990663549   0.000000000
  H   -0.317648878   1.871450588   0.878062348
  H   -0.317648878   1.871450588  -0.878062348
  H    0.743829428   2.987931444   0.000000000
