16
charge=0 charge_a=0 charge_b=0 selection_a=1-6 selection_b=7-16 scaling=1.5 benchmark_Eint=-2.534 benchmark_unit=kcal/mol group=OH-O
  O    1.943856003   0.020042468   0.695762285
  H    1.014176701   0.278639079   0.728559625
  C    2.381283054   0.110339895  -0.648868141
  H    3.406576357  -0.252587687  -0.683659435
  H    2.371762939   1.141818929  -1.016466769
  H    1.772170879  -0.501534601  -1.320500062
  H   -3.381638022   1.738658516  -0.485823000
  H   -2.137329401   2.557088082   0.499876028
  H   -1.748150260   2.020261110  -1.155858706
  H   -2.124102872  -2.426773380  -0.766635336
  H   -2.770862781  -1.762838542   0.758554340
  H   -1.002970660  -1.798604972   0.469245944
  C   -2.317821465   1.792784664  -0.253722088
  O   -1.870751378   0.588542150   0.338522324
  O   -2.072274061  -0.441601106  -0.680041190
  C   -1.983805891  -1.675159870   0.008307429
