16
charge=0 charge_a=0 charge_b=0 selection_a=1-6 selection_b=7-16 scaling=1.25 benchmark_Eint=-4.254 benchmark_unit=kcal/mol group=OH-O
  O    1.943856003   0.020042468   0.695762285
  H    1.014176701   0.278639079   0.728559625
  C    2.381283054   0.110339895  -0.648868141
  H    3.406576357  -0.252587687  -0.683659435
  H    2.371762939   1.141818929  -1.016466769
  H    1.772170879  -0.501534601  -1.320500062
  H   -2.900816676   1.687008004  -0.420816784
  H   -1.656508054   2.505437570   0.564882245
  H   -1.267328914   1.968610599  -1.090852490
  H   -1.643281526  -2.478423892  -0.701629120
  H   -2.290041434  -1.814489053   0.823560557
  H   -0.522149314  -1.850255483   0.534252160
  C   -1.837000118   1.741134152  -0.188715872
  O   -1.389930032   0.536891638   0.403528541
  O   -1.591452714  -0.493251617  -0.615034973
  C   -1.502984544  -1.726810381   0.073313646
