15
charge=0 charge_a=0 charge_b=0 selection_a=1-6 selection_b=7-15 scaling=1.5 benchmark_Eint=-1.609 benchmark_unit=kcal/mol group=OH-O
  O    2.559043225   0.253918837   0.353749621
  H    1.718237081   0.311084953   0.816533698
  C    2.344280848  -0.456508467  -0.855381913
  H    3.280037231  -0.438887615  -1.409786999
  H    1.567367574   0.006087884  -1.470720533
  H    2.069169354  -1.500067274  -0.675346122
  H   -3.375531898   0.929197418  -1.592133386
  H   -3.490916064  -1.652849962  -0.695176506
  H   -1.553742592   2.140807110   0.051196888
  H   -1.730434054  -1.726699592   1.397505866
  C   -2.885857012  -0.854387490  -0.305289924
  C   -2.825589322   0.498431454  -0.775038726
  C   -1.933338338   1.137303674   0.015925876
  O   -1.432721466   0.276221736   0.950104614
  C   -2.025633046  -0.934825406   0.735536542
