12
charge=0 charge_a=0 charge_b=0 selection_a=1-6 selection_b=7-12 scaling=2.0 benchmark_Eint=-0.766 benchmark_unit=kcal/mol group=OH-O
  O   -1.557072727   0.447227590   0.000000000
  H   -0.883414953  -0.243086785   0.000000000
  C   -2.846448442  -0.143949748   0.000000000
  H   -3.572929249   0.665717419   0.000000000
  H   -3.015623971  -0.758297651   0.888936421
  H   -3.015623971  -0.758297651  -0.888936421
  H    4.126396877   0.685247181   0.876008433
  H    4.126396877   0.685247181  -0.876008433
  H    2.551445484   0.543740901   0.000000000
  C    3.609151601   0.290005168   0.000000000
  N    3.855594846  -1.162070169   0.000000000
  O    2.864169527  -1.842501737   0.000000000
