19
charge=0 charge_a=0 charge_b=0 selection_a=1-6 selection_b=7-19 scaling=0.95 benchmark_Eint=-5.185 benchmark_unit=kcal/mol group=OH-O
  O    3.155324976  -0.205045800  -0.391889929
  H    2.485897861   0.483320662  -0.474612775
  C    3.165951540  -0.651469314   0.952974816
  H    3.890099794  -1.460681857   1.020957881
  H    2.189716241  -1.034277025   1.266410092
  H    3.468500034   0.138955452   1.646913189
  H    0.746864458  -1.082317624  -0.989187128
  H   -3.308862376  -1.681978663   0.293366689
  H   -1.206835095  -2.573397137  -0.665463555
  H   -1.500049817   2.191230782   0.599728777
  H    0.667201109   2.319755517  -0.133225463
  H   -3.445553591   0.708953186   0.923469884
  C   -2.457714317  -1.032701867   0.151276676
  C   -1.276259962  -1.531484902  -0.387103795
  C   -0.177034591  -0.706217624  -0.574581767
  C   -0.266859344   0.633582933  -0.215607347
  C   -1.440293161   1.145948141   0.323535196
  C   -2.533787577   0.307890951   0.504406192
  O    0.844599943   1.418146752  -0.413494361
