12
charge=0 charge_a=0 charge_b=0 selection_a=1-6 selection_b=7-12 scaling=1.5 benchmark_Eint=-2.730 benchmark_unit=kcal/mol group=OH-O
  O    1.314820958  -0.412457918  -0.489820465
  H    0.450880825   0.014371030  -0.399320006
  C    2.216978094   0.189483065   0.418542323
  H    3.175611578  -0.315213487   0.312205478
  H    1.889448906   0.084861602   1.458255496
  H    2.366309090   1.253907523   0.209865811
  O   -2.201750906   0.932264551  -0.023804678
  H   -2.592467328   1.343890684  -0.797772648
  C   -3.026341964  -0.154613006   0.400962785
  H   -2.529815867  -0.606206249   1.254998283
  H   -3.131753362  -0.909241699  -0.380242258
  H   -4.013770385   0.193479229   0.708818008
