15
charge=0 charge_a=0 charge_b=0 selection_a=1-6 selection_b=7-15 scaling=0.85 benchmark_Eint=-4.069 benchmark_unit=kcal/mol group=OH-O
  O   -1.802011968  -0.000000000  -0.688378608
  H   -0.834188154  -0.000000000  -0.711767154
  C   -2.204332885   0.000000000   0.666225878
  H   -3.292570662   0.000000000   0.687767035
  H   -1.854075447  -0.888292493   1.203850689
  H   -1.854075447   0.888292493   1.203850689
  H    0.791550152  -2.022138578  -0.357911319
  H    2.340848759  -1.238121782   0.028409727
  H    1.015617252  -1.226126908   1.217140121
  H    0.791550152   2.022138578  -0.357911319
  H    2.340848759   1.238121782   0.028409727
  H    1.015617252   1.226126908   1.217140121
  C    1.255013480  -1.180750345   0.149828018
  O    0.742381114  -0.000000000  -0.437883470
  C    1.255013480   1.180750345   0.149828018
