15
charge=0 charge_a=0 charge_b=0 selection_a=1-6 selection_b=7-15 scaling=2.0 benchmark_Eint=-0.574 benchmark_unit=kcal/mol group=OH-O
  O    2.559043225   0.253918837   0.353749621
  H    1.718237081   0.311084953   0.816533698
  C    2.344280848  -0.456508467  -0.855381913
  H    3.280037231  -0.438887615  -1.409786999
  H    1.567367574   0.006087884  -1.470720533
  H    2.069169354  -1.500067274  -0.675346122
  H   -4.425851413   0.917576345  -1.547609748
  H   -4.541235579  -1.664471034  -0.650652868
  H   -2.604062108   2.129186037   0.095720526
  H   -2.780753570  -1.738320665   1.442029505
  C   -3.936176527  -0.866008562  -0.260766286
  C   -3.875908837   0.486810381  -0.730515088
  C   -2.983657854   1.125682601   0.060449515
  O   -2.483040981   0.264600663   0.994628252
  C   -3.075952562  -0.946446479   0.780060180
