15
charge=0 charge_a=0 charge_b=0 selection_a=1-6 selection_b=7-15 scaling=0.9 benchmark_Eint=-5.305 benchmark_unit=kcal/mol group=OH-O
  O   -1.802011968  -0.000000000  -0.688378608
  H   -0.834188154  -0.000000000  -0.711767154
  C   -2.204332885   0.000000000   0.666225878
  H   -3.292570662   0.000000000   0.687767035
  H   -1.854075447  -0.888292493   1.203850689
  H   -1.854075447   0.888292493   1.203850689
  H    0.884289521  -2.022138578  -0.341800514
  H    2.433588128  -1.238121782   0.044520532
  H    1.108356621  -1.226126908   1.233250926
  H    0.884289521   2.022138578  -0.341800514
  H    2.433588128   1.238121782   0.044520532
  H    1.108356621   1.226126908   1.233250926
  C    1.347752849  -1.180750345   0.165938823
  O    0.835120483  -0.000000000  -0.421772665
  C    1.347752849   1.180750345   0.165938823
