12
charge=0 charge_a=0 charge_b=0 selection_a=1-6 selection_b=7-12 scaling=1.5 benchmark_Eint=-2.070 benchmark_unit=kcal/mol group=OH-O
  O   -1.557072727   0.447227590   0.000000000
  H   -0.883414953  -0.243086785   0.000000000
  C   -2.846448442  -0.143949748   0.000000000
  H   -3.572929249   0.665717419   0.000000000
  H   -3.015623971  -0.758297651   0.888936421
  H   -3.015623971  -0.758297651  -0.888936421
  H    3.189500757   1.085100919   0.876008433
  H    3.189500757   1.085100919  -0.876008433
  H    1.614549364   0.943594639   0.000000000
  C    2.672255481   0.689858906   0.000000000
  N    2.918698726  -0.762216431   0.000000000
  O    1.927273407  -1.442647999   0.000000000
