15
charge=0 charge_a=0 charge_b=0 selection_a=1-6 selection_b=7-15 scaling=0.8 benchmark_Eint=-0.770 benchmark_unit=kcal/mol group=OH-O
  O    2.559043225   0.253918837   0.353749621
  H    1.718237081   0.311084953   0.816533698
  C    2.344280848  -0.456508467  -0.855381913
  H    3.280037231  -0.438887615  -1.409786999
  H    1.567367574   0.006087884  -1.470720533
  H    2.069169354  -1.500067274  -0.675346122
  H   -1.905084576   0.945466919  -1.654466480
  H   -2.020468742  -1.636580460  -0.757509600
  H   -0.083295271   2.157076611  -0.011136206
  H   -0.259986733  -1.710430091   1.335172773
  C   -1.415409690  -0.838117988  -0.367623018
  C   -1.355142000   0.514700955  -0.837371820
  C   -0.462891017   1.153573175  -0.046407217
  O    0.037725856   0.292491237   0.887771520
  C   -0.555185725  -0.918555905   0.673203448
