12
charge=0 charge_a=0 charge_b=0 selection_a=1-6 selection_b=7-12 scaling=1.25 benchmark_Eint=-3.440 benchmark_unit=kcal/mol group=OH-O
  O   -1.557072727   0.447227590   0.000000000
  H   -0.883414953  -0.243086785   0.000000000
  C   -2.846448442  -0.143949748   0.000000000
  H   -3.572929249   0.665717419   0.000000000
  H   -3.015623971  -0.758297651   0.888936421
  H   -3.015623971  -0.758297651  -0.888936421
  H    2.721052697   1.285027788   0.876008433
  H    2.721052697   1.285027788  -0.876008433
  H    1.146101304   1.143521508   0.000000000
  C    2.203807421   0.889785775   0.000000000
  N    2.450250666  -0.562289562   0.000000000
  O    1.458825347  -1.242721130   0.000000000
