17
charge=0 charge_a=0 charge_b=0 selection_a=1-6 selection_b=7-17 scaling=0.85 benchmark_Eint=-4.979 benchmark_unit=kcal/mol group=OH-O
  O    2.388680733   0.327663734   0.000000000
  H    1.537962776  -0.132351328   0.000000000
  C    3.428661986  -0.632073870   0.000000000
  H    4.373781030  -0.091970573   0.000000000
  H    3.399035303  -1.271319579  -0.888004961
  H    3.399035303  -1.271319579   0.888004961
  H    0.382628994   1.764267764   0.884415489
  H   -0.657785990   2.914704854   0.000000000
  H    0.382628994   1.764267764  -0.884415489
  H   -2.933042976  -0.879099478  -0.877420088
  C   -1.079976086  -0.289347055   0.000000000
  O   -1.354767770   1.018352519   0.000000000
  C   -0.229227320   1.919113669   0.000000000
  C   -2.333560486  -1.116801002   0.000000000
  O    0.041976249  -0.742338369   0.000000000
  H   -2.075423800  -2.169824342   0.000000000
  H   -2.933042976  -0.879099478   0.877420088
