19
charge=0 charge_a=0 charge_b=0 selection_a=1-6 selection_b=7-19 scaling=0.85 benchmark_Eint=-3.630 benchmark_unit=kcal/mol group=OH-O
  O    3.155324976  -0.205045800  -0.391889929
  H    2.485897861   0.483320662  -0.474612775
  C    3.165951540  -0.651469314   0.952974816
  H    3.890099794  -1.460681857   1.020957881
  H    2.189716241  -1.034277025   1.266410092
  H    3.468500034   0.138955452   1.646913189
  H    0.919632660  -1.180720370  -0.995620645
  H   -3.136094174  -1.780381409   0.286933172
  H   -1.034066893  -2.671799883  -0.671897072
  H   -1.327281615   2.092828036   0.593295260
  H    0.839969311   2.221352771  -0.139658980
  H   -3.272785389   0.610550440   0.917036367
  C   -2.284946115  -1.131104613   0.144843159
  C   -1.103491760  -1.629887648  -0.393537312
  C   -0.004266389  -0.804620370  -0.581015284
  C   -0.094091142   0.535180187  -0.222040864
  C   -1.267524959   1.047545395   0.317101679
  C   -2.361019375   0.209488205   0.497972675
  O    1.017368145   1.319744006  -0.419927878
