15
charge=0 charge_a=0 charge_b=0 selection_a=1-6 selection_b=7-15 scaling=1.0 benchmark_Eint=-6.058 benchmark_unit=kcal/mol group=OH-O
  O   -1.802011968  -0.000000000  -0.688378608
  H   -0.834188154  -0.000000000  -0.711767154
  C   -2.204332885   0.000000000   0.666225878
  H   -3.292570662   0.000000000   0.687767035
  H   -1.854075447  -0.888292493   1.203850689
  H   -1.854075447   0.888292493   1.203850689
  H    1.069768258  -2.022138578  -0.309578904
  H    2.619066865  -1.238121782   0.076742142
  H    1.293835358  -1.226126908   1.265472536
  H    1.069768258   2.022138578  -0.309578904
  H    2.619066865   1.238121782   0.076742142
  H    1.293835358   1.226126908   1.265472536
  C    1.533231586  -1.180750345   0.198160433
  O    1.020599220   0.000000000  -0.389551055
  C    1.533231586   1.180750345   0.198160433
