18
charge=0 charge_a=0 charge_b=0 selection_a=1-6 selection_b=7-18 scaling=1.0 benchmark_Eint=-8.640 benchmark_unit=kcal/mol group=OH-O
  O   -2.330700249   0.328801354   0.000000000
  H   -1.463543736  -0.108509401   0.000000000
  C   -3.337457861  -0.662813388   0.000000000
  H   -4.301785995  -0.156616591   0.000000000
  H   -3.286887585  -1.302362372   0.887444105
  H   -3.286887585  -1.302362372  -0.887444105
  C    2.565653305  -1.275446016   0.000000000
  H    2.529294854  -1.917831945   0.877773548
  H    2.529294854  -1.917831945  -0.877773548
  H    3.503152005  -0.723061870   0.000000000
  C    1.342099601  -0.388243760   0.000000000
  O    0.213208949  -0.866855143   0.000000000
  N    1.563992160   0.942719865   0.000000000
  H    2.511359212   1.271102431   0.000000000
  C    0.481417307   1.914828975   0.000000000
  H   -0.149973609   1.795616014   0.878062348
  H   -0.149973609   1.795616014  -0.878062348
  H    0.911504697   2.912096870   0.000000000
