12
charge=0 charge_a=0 charge_b=0 selection_a=1-6 selection_b=7-12 scaling=0.9 benchmark_Eint=-3.951 benchmark_unit=kcal/mol group=OH-O
  O   -1.557072727   0.447227590   0.000000000
  H   -0.883414953  -0.243086785   0.000000000
  C   -2.846448442  -0.143949748   0.000000000
  H   -3.572929249   0.665717419   0.000000000
  H   -3.015623971  -0.758297651   0.888936421
  H   -3.015623971  -0.758297651  -0.888936421
  H    2.065225413   1.564925405   0.876008433
  H    2.065225413   1.564925405  -0.876008433
  H    0.490274020   1.423419125   0.000000000
  C    1.547980137   1.169683392   0.000000000
  N    1.794423382  -0.282391945   0.000000000
  O    0.802998063  -0.962823513   0.000000000
