13
charge=0 charge_a=0 charge_b=0 selection_a=1-6 selection_b=7-13 scaling=1.0 benchmark_Eint=-6.164 benchmark_unit=kcal/mol group=OH-O
  O   -2.033801120  -0.367838982   0.143631812
  H   -1.354642634   0.288948179   0.339232156
  C   -3.222112874   0.288656615  -0.270899880
  H   -3.953989435  -0.482557613  -0.500340226
  H   -3.063664480   0.893437237  -1.167950974
  H   -3.629650024   0.927772303   0.516891414
  H   -0.024345908  -1.423869278  -0.305490740
  H    1.021145725  -1.636663972   1.111739906
  H    1.710403730  -1.906888952  -0.516694224
  C    0.992325307  -1.344594174   0.065263585
  N    1.391457835   0.096589489   0.018083382
  O    0.556136041   0.921440810   0.368406795
  O    2.518958172   0.364931721  -0.340575374
