9
charge=0 charge_a=0 charge_b=0 selection_a=1-6 selection_b=7-9 scaling=1.05 benchmark_Eint=-5.009 benchmark_unit=kcal/mol group=OH-O
  O   -0.757723424   0.640840597   0.000000000
  H    0.153912854   0.320518766   0.000000000
  C   -1.632556266  -0.471743904   0.000000000
  H   -2.650698917  -0.086847036   0.000000000
  H   -1.504208428  -1.099180090   0.887993138
  H   -1.504208428  -1.099180090  -0.887993138
  O    2.113060720  -0.212171099   0.000000000
  H    2.556287758   0.164111413  -0.765134271
  H    2.556287758   0.164111413   0.765134271
