15
charge=0 charge_a=0 charge_b=0 selection_a=1-6 selection_b=7-15 scaling=0.9 benchmark_Eint=-3.495 benchmark_unit=kcal/mol group=OH-O
  O    2.559043225   0.253918837   0.353749621
  H    1.718237081   0.311084953   0.816533698
  C    2.344280848  -0.456508467  -0.855381913
  H    3.280037231  -0.438887615  -1.409786999
  H    1.567367574   0.006087884  -1.470720533
  H    2.069169354  -1.500067274  -0.675346122
  H   -2.115148479   0.943142704  -1.645561753
  H   -2.230532645  -1.638904674  -0.748604873
  H   -0.293359174   2.154752396  -0.002231479
  H   -0.470050636  -1.712754306   1.344077500
  C   -1.625473593  -0.840442202  -0.358718291
  C   -1.565205903   0.512376740  -0.828467093
  C   -0.672954920   1.151248960  -0.037502490
  O   -0.172338047   0.290167022   0.896676247
  C   -0.765249628  -0.920880120   0.682108175
