22
charge=0 charge_a=0 charge_b=0 selection_a=1-13 selection_b=14-22 scaling=1.05 benchmark_Eint=-8.734 benchmark_unit=kcal/mol group=OH-O
  H   -1.960731059   2.301499527  -0.422289237
  H   -4.046481900  -1.420772073   0.067011469
  H   -4.075250689   1.011871411  -0.404790589
  H    0.214879094  -1.250171846   0.525146926
  H    1.169021503   0.798987904   0.134980971
  H   -1.887321494  -2.543263622   0.529340633
  C   -3.125808466  -0.856044949   0.059766974
  C   -3.138767628   0.509941491  -0.204469868
  C   -1.960717467   1.240985194  -0.216249632
  C   -0.745761890   0.606714072   0.040177222
  C   -0.725963531  -0.762387406   0.310961072
  C   -1.913533178  -1.483254679   0.317189481
  O    0.381610677   1.361006382   0.016433201
  H    3.569034618   0.541767866   1.758435439
  H    4.586217014  -0.655871616   0.924976897
  H    4.365857064   0.967196033   0.225803392
  H    2.016454048  -1.097955122  -1.601703710
  H    3.635522014  -1.662662067  -1.126063214
  H    3.424885740  -0.033391693  -1.815868044
  C    3.877576392   0.165352582   0.787153310
  O    2.711314580  -0.285670470   0.119951594
  C    2.970465040  -0.796518230  -1.177825824
