24
charge=0 charge_a=0 charge_b=0 selection_a=1-13 selection_b=14-24 scaling=1.05 benchmark_Eint=-9.239 benchmark_unit=kcal/mol group=OH-O
  H   -2.753768377  -2.210475067  -0.047292647
  H   -4.341939541   1.737606688  -0.626686279
  H   -4.615822952  -0.723358096  -0.723101673
  H   -0.350928670   1.204086960   0.851929772
  H    0.377494959  -0.975478730   0.942801985
  H   -2.197310859   2.691580289   0.164466408
  C   -3.531700236   1.087158381  -0.331757228
  C   -3.682599443  -0.295059366  -0.384511874
  C   -2.646450029  -1.136153472  -0.008513884
  C   -1.437795951  -0.597477822   0.431274086
  C   -1.282003947   0.788302761   0.493396793
  C   -2.327372435   1.619483402   0.110268240
  O   -0.451357053  -1.457971519   0.784920069
  H    0.856442703   0.242074688  -1.440863635
  H    1.829777416  -0.480744184  -2.748741427
  H    1.458345769  -1.417435873  -1.275027730
  H    4.465706721   1.741528017   0.183500797
  C    2.991475385   0.202964595   0.188804020
  O    2.913340362   0.073229516  -1.136170513
  C    1.675559269  -0.431985978  -1.677140146
  C    4.322067671   0.751913994   0.615094194
  O    2.094305232  -0.084297752   0.950887246
  H    5.122603001   0.115430488   0.241959814
  H    4.363359332   0.809869285   1.696875917
