22
charge=0 charge_a=0 charge_b=0 selection_a=1-13 selection_b=14-22 scaling=0.8 benchmark_Eint=-4.168 benchmark_unit=kcal/mol group=OH-O
  H   -1.960731059   2.301499527  -0.422289237
  H   -4.046481900  -1.420772073   0.067011469
  H   -4.075250689   1.011871411  -0.404790589
  H    0.214879094  -1.250171846   0.525146926
  H    1.169021503   0.798987904   0.134980971
  H   -1.887321494  -2.543263622   0.529340633
  C   -3.125808466  -0.856044949   0.059766974
  C   -3.138767628   0.509941491  -0.204469868
  C   -1.960717467   1.240985194  -0.216249632
  C   -0.745761890   0.606714072   0.040177222
  C   -0.725963531  -0.762387406   0.310961072
  C   -1.913533178  -1.483254679   0.317189481
  O    0.381610677   1.361006382   0.016433201
  H    3.201821980   0.800019860   1.762013862
  H    4.219004376  -0.397619622   0.928555320
  H    3.998644427   1.225448027   0.229381815
  H    1.649241410  -0.839703128  -1.598125287
  H    3.268309376  -1.404410073  -1.122484791
  H    3.057673102   0.224860301  -1.812289621
  C    3.510363755   0.423604576   0.790731733
  O    2.344101943  -0.027418476   0.123530017
  C    2.603252402  -0.538266236  -1.174247401
