20
charge=0 charge_a=0 charge_b=0 selection_a=1-13 selection_b=14-20 scaling=0.95 benchmark_Eint=-8.304 benchmark_unit=kcal/mol group=OH-O
  H    1.750377234  -2.226735061  -0.662655251
  H    3.673364029   1.599795110  -0.340002603
  H    3.719348719  -0.774388393  -1.048871671
  H   -0.302096709   1.042377287   1.166956805
  H   -1.227315705  -1.031684814   0.757343215
  H    1.648763220   2.497814324   0.768914677
  C    2.816293440   0.964279300  -0.172422081
  C    2.839362252  -0.369203207  -0.568914937
  C    1.742531187  -1.190488846  -0.357278388
  C    0.601762329  -0.681806020   0.262361078
  C    0.574335431   0.652899637   0.668602270
  C    1.679016156   1.465967175   0.447094712
  O   -0.448046636  -1.522975260   0.443924404
  H   -3.269702094   0.018037195  -2.205465564
  H   -2.151196278   1.309764471  -1.825156905
  H   -1.676431173  -0.375972498  -1.492519340
  H   -4.006709130   1.121696852  -0.083215370
  C   -2.501788686   0.328969867  -1.494318821
  C   -3.113665716   0.472434410  -0.139683394
  O   -2.703614130  -0.052707636   0.869459375
