22
charge=0 charge_a=0 charge_b=0 selection_a=1-13 selection_b=14-22 scaling=1.1 benchmark_Eint=-8.391 benchmark_unit=kcal/mol group=OH-O
  H   -1.960731059   2.301499527  -0.422289237
  H   -4.046481900  -1.420772073   0.067011469
  H   -4.075250689   1.011871411  -0.404790589
  H    0.214879094  -1.250171846   0.525146926
  H    1.169021503   0.798987904   0.134980971
  H   -1.887321494  -2.543263622   0.529340633
  C   -3.125808466  -0.856044949   0.059766974
  C   -3.138767628   0.509941491  -0.204469868
  C   -1.960717467   1.240985194  -0.216249632
  C   -0.745761890   0.606714072   0.040177222
  C   -0.725963531  -0.762387406   0.310961072
  C   -1.913533178  -1.483254679   0.317189481
  O    0.381610677   1.361006382   0.016433201
  H    3.642477145   0.490117468   1.757719755
  H    4.659659541  -0.707522014   0.924261213
  H    4.439299592   0.915545634   0.225087708
  H    2.089896575  -1.149605520  -1.602419394
  H    3.708964541  -1.714312466  -1.126778898
  H    3.498328267  -0.085042092  -1.816583728
  C    3.951018920   0.113702184   0.786437626
  O    2.784757108  -0.337320868   0.119235910
  C    3.043907567  -0.848168628  -1.178541508
