22
charge=0 charge_a=0 charge_b=0 selection_a=1-13 selection_b=14-22 scaling=2.0 benchmark_Eint=-1.033 benchmark_unit=kcal/mol group=OH-O
  H   -3.091010130  -2.042141471  -0.000000425
  H   -3.901698488   2.175053748   0.000000317
  H   -4.710394969  -0.167625949  -0.000000209
  H    0.140666922   0.758068501   0.000000427
  H    0.376726132  -1.546334956   0.000000205
  H   -1.464491350   2.619253627   0.000000566
  C   -3.198088607   1.355618368   0.000000211
  C   -3.649359419   0.039647742  -0.000000077
  C   -2.751334105  -1.016696399  -0.000000186
  C   -1.381480191  -0.762488066   0.000000040
  C   -0.920512539   0.553224568   0.000000288
  C   -1.831497385   1.602291842   0.000000372
  O   -0.544282162  -1.836075575  -0.000000001
  H    5.414927378   2.365175214  -1.367722469
  H    5.414928858   2.365173198   1.367722191
  H    4.234911262  -0.006721133  -2.051186364
  H    4.234912807  -0.006723745   2.051183863
  C    5.035096831   1.598500200   0.716969909
  C    5.035096151   1.598501193  -0.716970953
  C    4.460123418   0.436430047  -1.099836215
  O    4.100937718  -0.292932188  -0.000001383
  C    4.460124404   0.436428545   1.099834114
