19
charge=0 charge_a=0 charge_b=0 selection_a=1-13 selection_b=14-19 scaling=0.85 benchmark_Eint=-6.237 benchmark_unit=kcal/mol group=OH-O
  H    1.534013417  -2.296018865   0.410509511
  H    3.537334972   1.499579662   0.252521404
  H    3.590316842  -0.941290896   0.677311447
  H   -0.626906653   1.207271707  -0.732074283
  H   -1.554704707  -0.879804804  -0.481926081
  H    1.414600869   2.564568978  -0.451391272
  C    2.642213289   0.906501440   0.135834630
  C    2.668912837  -0.464198777   0.373290510
  C    1.523512866  -1.231537629   0.226433527
  C    0.328478775  -0.629374572  -0.165035158
  C    0.295705856   0.744050246  -0.410814092
  C    1.450228154   1.501465555  -0.256975062
  O   -0.767263599  -1.419679212  -0.293749140
  O   -2.825986470   0.013435783  -0.461951946
  H   -3.632522139  -0.317585613  -0.863262697
  C   -3.091628681   0.421535528   0.884096701
  H   -2.146621380   0.764581004   1.295601482
  H   -3.458046926  -0.408907267   1.488868875
  H   -3.809640496   1.241888638   0.911361429
