20
charge=0 charge_a=0 charge_b=0 selection_a=1-13 selection_b=14-20 scaling=1.05 benchmark_Eint=-8.379 benchmark_unit=kcal/mol group=OH-O
  H    1.750377234  -2.226735061  -0.662655251
  H    3.673364029   1.599795110  -0.340002603
  H    3.719348719  -0.774388393  -1.048871671
  H   -0.302096709   1.042377287   1.166956805
  H   -1.227315705  -1.031684814   0.757343215
  H    1.648763220   2.497814324   0.768914677
  C    2.816293440   0.964279300  -0.172422081
  C    2.839362252  -0.369203207  -0.568914937
  C    1.742531187  -1.190488846  -0.357278388
  C    0.601762329  -0.681806020   0.262361078
  C    0.574335431   0.652899637   0.668602270
  C    1.679016156   1.465967175   0.447094712
  O   -0.448046636  -1.522975260   0.443924404
  H   -3.425101928   0.121087425  -2.193663862
  H   -2.306596112   1.412814701  -1.813355203
  H   -1.831831007  -0.272922268  -1.480717638
  H   -4.162108964   1.224747082  -0.071413668
  C   -2.657188520   0.432020097  -1.482517119
  C   -3.269065550   0.575484640  -0.127881692
  O   -2.859013964   0.050342594   0.881261077
