24
charge=0 charge_a=0 charge_b=0 selection_a=1-13 selection_b=14-24 scaling=0.85 benchmark_Eint=-7.017 benchmark_unit=kcal/mol group=OH-O
  H   -2.753768377  -2.210475067  -0.047292647
  H   -4.341939541   1.737606688  -0.626686279
  H   -4.615822952  -0.723358096  -0.723101673
  H   -0.350928670   1.204086960   0.851929772
  H    0.377494959  -0.975478730   0.942801985
  H   -2.197310859   2.691580289   0.164466408
  C   -3.531700236   1.087158381  -0.331757228
  C   -3.682599443  -0.295059366  -0.384511874
  C   -2.646450029  -1.136153472  -0.008513884
  C   -1.437795951  -0.597477822   0.431274086
  C   -1.282003947   0.788302761   0.493396793
  C   -2.327372435   1.619483402   0.110268240
  O   -0.451357053  -1.457971519   0.784920069
  H    0.529431223   0.072325931  -1.442403684
  H    1.502765936  -0.650492941  -2.750281476
  H    1.131334289  -1.587184630  -1.276567779
  H    4.138695241   1.571779260   0.181960748
  C    2.664463905   0.033215838   0.187263971
  O    2.586328882  -0.096519241  -1.137710562
  C    1.348547789  -0.601734735  -1.678680195
  C    3.995056191   0.582165237   0.613554145
  O    1.767293752  -0.254046509   0.949347197
  H    4.795591521  -0.054318269   0.240419765
  H    4.036347852   0.640120528   1.695335868
