22
charge=0 charge_a=0 charge_b=0 selection_a=1-13 selection_b=14-22 scaling=1.1 benchmark_Eint=-12.170 benchmark_unit=kcal/mol group=OH-O
  H   -2.106968712  -2.293172132   0.055702762
  H   -4.251358982   1.345667424   0.829771943
  H   -4.147389700  -1.129811179   0.843842762
  H   -0.269105498   1.474570277  -0.762956790
  H    0.752035610  -0.545734553  -1.059239724
  H   -2.301375621   2.640650014   0.020431858
  C   -3.362153936   0.835859315   0.489048197
  C   -3.301083505  -0.553662803   0.496312022
  C   -2.162434756  -1.214050521   0.058769053
  C   -1.067036857  -0.481830536  -0.394722831
  C   -1.120716939   0.911840055  -0.407072850
  C   -2.266840803   1.560072466   0.034823409
  O    0.032307283  -1.167570163  -0.809099694
  H    3.042442031  -1.001643249   1.809727120
  H    1.696187118  -1.268222767   0.740927692
  H    4.985967820   0.780912099  -0.317085346
  H    4.720465394   0.504638106   1.416422676
  H    4.055402989   1.941153426   0.615185998
  O    2.402330803   0.456884461  -0.917874111
  C    2.999976270   0.168519506   0.116577480
  N    2.557947507  -0.787479365   0.959486159
  C    4.273569399   0.881033371   0.499165029
