22
charge=0 charge_a=0 charge_b=0 selection_a=1-13 selection_b=14-22 scaling=1.0 benchmark_Eint=-8.877 benchmark_unit=kcal/mol group=OH-O
  H   -1.960731059   2.301499527  -0.422289237
  H   -4.046481900  -1.420772073   0.067011469
  H   -4.075250689   1.011871411  -0.404790589
  H    0.214879094  -1.250171846   0.525146926
  H    1.169021503   0.798987904   0.134980971
  H   -1.887321494  -2.543263622   0.529340633
  C   -3.125808466  -0.856044949   0.059766974
  C   -3.138767628   0.509941491  -0.204469868
  C   -1.960717467   1.240985194  -0.216249632
  C   -0.745761890   0.606714072   0.040177222
  C   -0.725963531  -0.762387406   0.310961072
  C   -1.913533178  -1.483254679   0.317189481
  O    0.381610677   1.361006382   0.016433201
  H    3.495592090   0.593418265   1.759151124
  H    4.512774486  -0.604221217   0.925692582
  H    4.292414537   1.018846432   0.226519077
  H    1.943011520  -1.046304723  -1.600988025
  H    3.562079486  -1.611011668  -1.125347529
  H    3.351443212   0.018258706  -1.815152359
  C    3.804133865   0.217002981   0.787868995
  O    2.637872053  -0.234020071   0.120667279
  C    2.897022512  -0.744867831  -1.177110139
