22
charge=0 charge_a=0 charge_b=0 selection_a=1-13 selection_b=14-22 scaling=2.0 benchmark_Eint=-2.664 benchmark_unit=kcal/mol group=OH-O
  H   -2.106968712  -2.293172132   0.055702762
  H   -4.251358982   1.345667424   0.829771943
  H   -4.147389700  -1.129811179   0.843842762
  H   -0.269105498   1.474570277  -0.762956790
  H    0.752035610  -0.545734553  -1.059239724
  H   -2.301375621   2.640650014   0.020431858
  C   -3.362153936   0.835859315   0.489048197
  C   -3.301083505  -0.553662803   0.496312022
  C   -2.162434756  -1.214050521   0.058769053
  C   -1.067036857  -0.481830536  -0.394722831
  C   -1.120716939   0.911840055  -0.407072850
  C   -2.266840803   1.560072466   0.034823409
  O    0.032307283  -1.167570163  -0.809099694
  H    4.392683552  -0.181318601   1.925389895
  H    3.046428639  -0.447898119   0.856590467
  H    6.336209341   1.601236747  -0.201422571
  H    6.070706915   1.324962754   1.532085451
  H    5.405644510   2.761478074   0.730848773
  O    3.752572324   1.277209109  -0.802211336
  C    4.350217791   0.988844154   0.232240255
  N    3.908189028   0.032845283   1.075148934
  C    5.623810920   1.701358019   0.614827804
