23
charge=0 charge_a=0 charge_b=0 selection_a=1-13 selection_b=14-23 scaling=0.9 benchmark_Eint=-7.365 benchmark_unit=kcal/mol group=OH-O
  H   -2.485082966  -2.098408763  -0.853968867
  H   -4.026688716   1.633785037   0.608197701
  H   -4.408134085  -0.625787465  -0.335467356
  H    0.202187250   0.938287260   0.498419350
  H    0.844002840  -1.135250954  -0.285488572
  H   -1.708447229   2.402091595   1.022330716
  C   -3.189942447   0.989890483   0.380545332
  C   -3.401094315  -0.279200002  -0.149294698
  C   -2.331630321  -1.111154080  -0.443130671
  C   -1.028436196  -0.676598944  -0.207090242
  C   -0.807793817   0.595126239   0.322073503
  C   -1.889341620   1.418023582   0.612344185
  O   -0.014457997  -1.527838895  -0.513668008
  H    3.693282747  -0.386806216   1.696865122
  H    2.617416329  -1.812473713   1.662131538
  H    1.960028073  -0.216064465   2.108484406
  H    2.419459754   2.073944658  -1.709249240
  H    3.205148505   0.503787859  -2.033290476
  H    1.421035163   0.616388677  -1.932382572
  C    2.684879680  -0.740899820   1.485488970
  O    2.379741447  -0.582797534   0.110529360
  O    2.440779980   0.856349551  -0.138412562
  C    2.366041878   0.999526851  -1.544405272
