22
charge=0 charge_a=0 charge_b=0 selection_a=1-13 selection_b=14-22 scaling=1.0 benchmark_Eint=-12.806 benchmark_unit=kcal/mol group=OH-O
  H   -2.106968712  -2.293172132   0.055702762
  H   -4.251358982   1.345667424   0.829771943
  H   -4.147389700  -1.129811179   0.843842762
  H   -0.269105498   1.474570277  -0.762956790
  H    0.752035610  -0.545734553  -1.059239724
  H   -2.301375621   2.640650014   0.020431858
  C   -3.362153936   0.835859315   0.489048197
  C   -3.301083505  -0.553662803   0.496312022
  C   -2.162434756  -1.214050521   0.058769053
  C   -1.067036857  -0.481830536  -0.394722831
  C   -1.120716939   0.911840055  -0.407072850
  C   -2.266840803   1.560072466   0.034823409
  O    0.032307283  -1.167570163  -0.809099694
  H    2.892415195  -1.092790432   1.796875701
  H    1.546160282  -1.359369950   0.728076273
  H    4.835940984   0.689764916  -0.329936765
  H    4.570438558   0.413490923   1.403571257
  H    3.905376153   1.850006243   0.602334579
  O    2.252303967   0.365737278  -0.930725530
  C    2.849949434   0.077372323   0.103726061
  N    2.407920671  -0.878626548   0.946634740
  C    4.123542563   0.789886188   0.486313610
