22
charge=0 charge_a=0 charge_b=0 selection_a=1-13 selection_b=14-22 scaling=0.9 benchmark_Eint=-11.754 benchmark_unit=kcal/mol group=OH-O
  H   -2.106968712  -2.293172132   0.055702762
  H   -4.251358982   1.345667424   0.829771943
  H   -4.147389700  -1.129811179   0.843842762
  H   -0.269105498   1.474570277  -0.762956790
  H    0.752035610  -0.545734553  -1.059239724
  H   -2.301375621   2.640650014   0.020431858
  C   -3.362153936   0.835859315   0.489048197
  C   -3.301083505  -0.553662803   0.496312022
  C   -2.162434756  -1.214050521   0.058769053
  C   -1.067036857  -0.481830536  -0.394722831
  C   -1.120716939   0.911840055  -0.407072850
  C   -2.266840803   1.560072466   0.034823409
  O    0.032307283  -1.167570163  -0.809099694
  H    2.742388359  -1.183937615   1.784024282
  H    1.396133446  -1.450517133   0.715224854
  H    4.685914148   0.598617733  -0.342788184
  H    4.420411722   0.322343740   1.390719838
  H    3.755349317   1.758859060   0.589483160
  O    2.102277131   0.274590095  -0.943576949
  C    2.699922598  -0.013774860   0.090874642
  N    2.257893835  -0.969773731   0.933783321
  C    3.973515727   0.698739005   0.473462191
