23
charge=0 charge_a=0 charge_b=0 selection_a=1-13 selection_b=14-23 scaling=1.25 benchmark_Eint=-7.651 benchmark_unit=kcal/mol group=OH-O
  H   -2.393348474  -2.084741909  -0.735610140
  H   -3.845185149   1.932323540  -0.288151546
  H   -4.170272657  -0.393864032  -1.078787456
  H    0.020061910   0.846956781   1.219385453
  H    0.705192264  -1.300742942   0.711898632
  H   -1.737426911   2.540804442   0.861997753
  C   -3.072276108   1.192778867  -0.138916173
  C   -3.252060860  -0.114152901  -0.581119529
  C   -2.263652961  -1.068202938  -0.393524237
  C   -1.074305876  -0.723123713   0.247958358
  C   -0.891560442   0.584486869   0.701662848
  C   -1.888238593   1.531848581   0.503257339
  O   -0.135770820  -1.688727101   0.405042951
  H    3.191482459   0.263861487  -2.242868264
  H    1.809186301  -0.579745195  -1.481625582
  H    1.881613161   1.181304169  -1.511247165
  H    4.794176230   1.176090318   1.024503955
  H    5.228150503   0.591123122  -0.597964815
  C    2.479936087   0.271542703  -1.419057136
  C    3.180543301   0.306941201  -0.086183730
  O    2.729259054  -0.256031128   0.892763093
  C    4.461091560   1.093700234  -0.005289526
  H    4.326549876   2.084363293  -0.441479010
