24
charge=0 charge_a=0 charge_b=0 selection_a=1-13 selection_b=14-24 scaling=0.8 benchmark_Eint=-4.523 benchmark_unit=kcal/mol group=OH-O
  H   -2.753768377  -2.210475067  -0.047292647
  H   -4.341939541   1.737606688  -0.626686279
  H   -4.615822952  -0.723358096  -0.723101673
  H   -0.350928670   1.204086960   0.851929772
  H    0.377494959  -0.975478730   0.942801985
  H   -2.197310859   2.691580289   0.164466408
  C   -3.531700236   1.087158381  -0.331757228
  C   -3.682599443  -0.295059366  -0.384511874
  C   -2.646450029  -1.136153472  -0.008513884
  C   -1.437795951  -0.597477822   0.431274086
  C   -1.282003947   0.788302761   0.493396793
  C   -2.327372435   1.619483402   0.110268240
  O   -0.451357053  -1.457971519   0.784920069
  H    0.447678352   0.029888741  -1.442788697
  H    1.421013065  -0.692930131  -2.750666489
  H    1.049581418  -1.629621820  -1.276952792
  H    4.056942370   1.529342070   0.181575735
  C    2.582711034  -0.009221352   0.186878958
  O    2.504576011  -0.138956431  -1.138095575
  C    1.266794918  -0.644171925  -1.679065208
  C    3.913303320   0.539728047   0.613169132
  O    1.685540881  -0.296483699   0.948962184
  H    4.713838650  -0.096755459   0.240034752
  H    3.954594981   0.597683338   1.694950855
