23
charge=0 charge_a=0 charge_b=0 selection_a=1-13 selection_b=14-23 scaling=1.0 benchmark_Eint=-9.629 benchmark_unit=kcal/mol group=OH-O
  H   -2.393348474  -2.084741909  -0.735610140
  H   -3.845185149   1.932323540  -0.288151546
  H   -4.170272657  -0.393864032  -1.078787456
  H    0.020061910   0.846956781   1.219385453
  H    0.705192264  -1.300742942   0.711898632
  H   -1.737426911   2.540804442   0.861997753
  C   -3.072276108   1.192778867  -0.138916173
  C   -3.252060860  -0.114152901  -0.581119529
  C   -2.263652961  -1.068202938  -0.393524237
  C   -1.074305876  -0.723123713   0.247958358
  C   -0.891560442   0.584486869   0.701662848
  C   -1.888238593   1.531848581   0.503257339
  O   -0.135770820  -1.688727101   0.405042951
  H    2.786669101   0.054919124  -2.279041156
  H    1.404372943  -0.788687558  -1.517798474
  H    1.476799803   0.972361806  -1.547420057
  H    4.389362872   0.967147955   0.988331063
  H    4.823337145   0.382180759  -0.634137707
  C    2.075122729   0.062600340  -1.455230028
  C    2.775729943   0.097998838  -0.122356622
  O    2.324445696  -0.464973491   0.856590201
  C    4.056278202   0.884757871  -0.041462418
  H    3.921736518   1.875420930  -0.477651902
