24
charge=0 charge_a=0 charge_b=0 selection_a=1-13 selection_b=14-24 scaling=1.25 benchmark_Eint=-7.433 benchmark_unit=kcal/mol group=OH-O
  H   -2.753768377  -2.210475067  -0.047292647
  H   -4.341939541   1.737606688  -0.626686279
  H   -4.615822952  -0.723358096  -0.723101673
  H   -0.350928670   1.204086960   0.851929772
  H    0.377494959  -0.975478730   0.942801985
  H   -2.197310859   2.691580289   0.164466408
  C   -3.531700236   1.087158381  -0.331757228
  C   -3.682599443  -0.295059366  -0.384511874
  C   -2.646450029  -1.136153472  -0.008513884
  C   -1.437795951  -0.597477822   0.431274086
  C   -1.282003947   0.788302761   0.493396793
  C   -2.327372435   1.619483402   0.110268240
  O   -0.451357053  -1.457971519   0.784920069
  H    1.183454184   0.411823446  -1.439323585
  H    2.156788897  -0.310995426  -2.747201377
  H    1.785357250  -1.247687115  -1.273487680
  H    4.792718202   1.911276775   0.185040847
  C    3.318486866   0.372713353   0.190344070
  O    3.240351843   0.242978274  -1.134630463
  C    2.002570750  -0.262237220  -1.675600096
  C    4.649079152   0.921662752   0.616634244
  O    2.421316713   0.085451006   0.952427296
  H    5.449614482   0.285179246   0.243499864
  H    4.690370813   0.979618043   1.698415967
