22
charge=0 charge_a=0 charge_b=0 selection_a=1-13 selection_b=14-22 scaling=1.5 benchmark_Eint=-6.601 benchmark_unit=kcal/mol group=OH-O
  H   -2.106968712  -2.293172132   0.055702762
  H   -4.251358982   1.345667424   0.829771943
  H   -4.147389700  -1.129811179   0.843842762
  H   -0.269105498   1.474570277  -0.762956790
  H    0.752035610  -0.545734553  -1.059239724
  H   -2.301375621   2.640650014   0.020431858
  C   -3.362153936   0.835859315   0.489048197
  C   -3.301083505  -0.553662803   0.496312022
  C   -2.162434756  -1.214050521   0.058769053
  C   -1.067036857  -0.481830536  -0.394722831
  C   -1.120716939   0.911840055  -0.407072850
  C   -2.266840803   1.560072466   0.034823409
  O    0.032307283  -1.167570163  -0.809099694
  H    3.642549374  -0.637054516   1.861132798
  H    2.296294460  -0.903634034   0.792333370
  H    5.586075162   1.145500832  -0.265679668
  H    5.320572736   0.869226838   1.467828354
  H    4.655510332   2.305742158   0.666591676
  O    3.002438146   0.821473194  -0.866468433
  C    3.600083612   0.533108238   0.167983158
  N    3.158054850  -0.422890632   1.010891837
  C    4.873676742   1.245622104   0.550570707
