24
charge=0 charge_a=0 charge_b=0 selection_a=1-13 selection_b=14-24 scaling=1.0 benchmark_Eint=-9.352 benchmark_unit=kcal/mol group=OH-O
  H   -2.753768377  -2.210475067  -0.047292647
  H   -4.341939541   1.737606688  -0.626686279
  H   -4.615822952  -0.723358096  -0.723101673
  H   -0.350928670   1.204086960   0.851929772
  H    0.377494959  -0.975478730   0.942801985
  H   -2.197310859   2.691580289   0.164466408
  C   -3.531700236   1.087158381  -0.331757228
  C   -3.682599443  -0.295059366  -0.384511874
  C   -2.646450029  -1.136153472  -0.008513884
  C   -1.437795951  -0.597477822   0.431274086
  C   -1.282003947   0.788302761   0.493396793
  C   -2.327372435   1.619483402   0.110268240
  O   -0.451357053  -1.457971519   0.784920069
  H    0.774689833   0.199637499  -1.441248647
  H    1.748024546  -0.523181373  -2.749126439
  H    1.376592899  -1.459873062  -1.275412742
  H    4.383953851   1.699090828   0.183115785
  C    2.909722515   0.160527406   0.188419008
  O    2.831587492   0.030792327  -1.136555525
  C    1.593806399  -0.474423167  -1.677525158
  C    4.240314801   0.709476805   0.614709182
  O    2.012552362  -0.126734941   0.950502234
  H    5.040850131   0.072993299   0.241574802
  H    4.281606462   0.767432096   1.696490905
