22
charge=0 charge_a=0 charge_b=0 selection_a=1-13 selection_b=14-22 scaling=0.85 benchmark_Eint=-10.034 benchmark_unit=kcal/mol group=OH-O
  H   -2.106968712  -2.293172132   0.055702762
  H   -4.251358982   1.345667424   0.829771943
  H   -4.147389700  -1.129811179   0.843842762
  H   -0.269105498   1.474570277  -0.762956790
  H    0.752035610  -0.545734553  -1.059239724
  H   -2.301375621   2.640650014   0.020431858
  C   -3.362153936   0.835859315   0.489048197
  C   -3.301083505  -0.553662803   0.496312022
  C   -2.162434756  -1.214050521   0.058769053
  C   -1.067036857  -0.481830536  -0.394722831
  C   -1.120716939   0.911840055  -0.407072850
  C   -2.266840803   1.560072466   0.034823409
  O    0.032307283  -1.167570163  -0.809099694
  H    2.667374941  -1.229511207   1.777598572
  H    1.321120028  -1.496090725   0.708799144
  H    4.610900730   0.553044141  -0.349213894
  H    4.345398304   0.276770148   1.384294128
  H    3.680335899   1.713285468   0.583057450
  O    2.027263713   0.229016503  -0.950002659
  C    2.624909180  -0.059348452   0.084448932
  N    2.182880417  -1.015347323   0.927357611
  C    3.898502309   0.653165413   0.467036481
