23
charge=0 charge_a=0 charge_b=0 selection_a=1-13 selection_b=14-23 scaling=0.8 benchmark_Eint=-4.680 benchmark_unit=kcal/mol group=OH-O
  H   -2.393348474  -2.084741909  -0.735610140
  H   -3.845185149   1.932323540  -0.288151546
  H   -4.170272657  -0.393864032  -1.078787456
  H    0.020061910   0.846956781   1.219385453
  H    0.705192264  -1.300742942   0.711898632
  H   -1.737426911   2.540804442   0.861997753
  C   -3.072276108   1.192778867  -0.138916173
  C   -3.252060860  -0.114152901  -0.581119529
  C   -2.263652961  -1.068202938  -0.393524237
  C   -1.074305876  -0.723123713   0.247958358
  C   -0.891560442   0.584486869   0.701662848
  C   -1.888238593   1.531848581   0.503257339
  O   -0.135770820  -1.688727101   0.405042951
  H    2.462818415  -0.112234766  -2.307979470
  H    1.080522257  -0.955841448  -1.546736788
  H    1.152949117   0.805207916  -1.576358371
  H    4.065512186   0.799994065   0.959392749
  H    4.499486459   0.215026869  -0.663076021
  C    1.751272043  -0.104553550  -1.484168342
  C    2.451879257  -0.069155052  -0.151294936
  O    2.000595010  -0.632127381   0.827651887
  C    3.732427516   0.717603981  -0.070400732
  H    3.597885832   1.708267040  -0.506590216
