23
charge=0 charge_a=0 charge_b=0 selection_a=1-13 selection_b=14-23 scaling=1.1 benchmark_Eint=-7.663 benchmark_unit=kcal/mol group=OH-O
  H   -2.485082966  -2.098408763  -0.853968867
  H   -4.026688716   1.633785037   0.608197701
  H   -4.408134085  -0.625787465  -0.335467356
  H    0.202187250   0.938287260   0.498419350
  H    0.844002840  -1.135250954  -0.285488572
  H   -1.708447229   2.402091595   1.022330716
  C   -3.189942447   0.989890483   0.380545332
  C   -3.401094315  -0.279200002  -0.149294698
  C   -2.331630321  -1.111154080  -0.443130671
  C   -1.028436196  -0.676598944  -0.207090242
  C   -0.807793817   0.595126239   0.322073503
  C   -1.889341620   1.418023582   0.612344185
  O   -0.014457997  -1.527838895  -0.513668008
  H    4.034557993  -0.264038790   1.784869108
  H    2.958691575  -1.689706287   1.750135522
  H    2.301303319  -0.093297039   2.196488390
  H    2.760735000   2.196712084  -1.621245256
  H    3.546423751   0.626555285  -1.945286492
  H    1.762310409   0.739156103  -1.844378586
  C    3.026154926  -0.618132394   1.573492956
  O    2.721016693  -0.460030108   0.198533346
  O    2.782055226   0.979116977  -0.050408578
  C    2.707317124   1.122294277  -1.456401286
