22
charge=0 charge_a=0 charge_b=0 selection_a=1-13 selection_b=14-22 scaling=0.95 benchmark_Eint=-5.737 benchmark_unit=kcal/mol group=OH-O
  H   -3.091010130  -2.042141471  -0.000000425
  H   -3.901698488   2.175053748   0.000000317
  H   -4.710394969  -0.167625949  -0.000000209
  H    0.140666922   0.758068501   0.000000427
  H    0.376726132  -1.546334956   0.000000205
  H   -1.464491350   2.619253627   0.000000566
  C   -3.198088607   1.355618368   0.000000211
  C   -3.649359419   0.039647742  -0.000000077
  C   -2.751334105  -1.016696399  -0.000000186
  C   -1.381480191  -0.762488066   0.000000040
  C   -0.920512539   0.553224568   0.000000288
  C   -1.831497385   1.602291842   0.000000372
  O   -0.544282162  -1.836075575  -0.000000001
  H    3.459716295   1.707138761  -1.367721635
  H    3.459717775   1.707136745   1.367723025
  H    2.279700179  -0.664757586  -2.051185530
  H    2.279701724  -0.664760198   2.051184697
  C    3.079885748   0.940463747   0.716970743
  C    3.079885068   0.940464740  -0.716970119
  C    2.504912335  -0.221606406  -1.099835381
  O    2.145726635  -0.950968641  -0.000000549
  C    2.504913321  -0.221607908   1.099834948
