20
charge=0 charge_a=0 charge_b=0 selection_a=1-13 selection_b=14-20 scaling=0.85 benchmark_Eint=-5.774 benchmark_unit=kcal/mol group=OH-O
  H   -2.310913815   2.058515838  -0.889695502
  H   -3.828871329  -1.921471529  -0.342364747
  H   -4.065894461   0.355856086  -1.288426338
  H   -0.100688008  -0.766029094   1.433226400
  H    0.641175142   1.336505452   0.848147754
  H   -1.834340597  -2.472020391   1.019126498
  C   -3.065565013  -1.177557619  -0.168587682
  C   -3.196329213   0.102352395  -0.698395623
  C   -2.219841738   1.062683591  -0.481053051
  C   -1.096109736   0.747535166   0.279956062
  C   -0.961688547  -0.530439867   0.822729956
  C   -1.945393198  -1.485059650   0.592269402
  O   -0.159596496   1.717818673   0.458758190
  H    2.209420038  -0.281457292  -2.205742161
  H    1.358669465   1.131190537  -1.467810672
  H    0.746778612  -0.504533726  -1.186375525
  C    1.640038024   0.089125966  -1.364331123
  N    2.490799266  -0.034711328  -0.141413245
  O    2.082835872   0.504042230   0.883090395
  O    3.519414812  -0.669661763  -0.220776287
