20
charge=0 charge_a=0 charge_b=0 selection_a=1-13 selection_b=14-20 scaling=1.25 benchmark_Eint=-5.992 benchmark_unit=kcal/mol group=OH-O
  H   -2.310913815   2.058515838  -0.889695502
  H   -3.828871329  -1.921471529  -0.342364747
  H   -4.065894461   0.355856086  -1.288426338
  H   -0.100688008  -0.766029094   1.433226400
  H    0.641175142   1.336505452   0.848147754
  H   -1.834340597  -2.472020391   1.019126498
  C   -3.065565013  -1.177557619  -0.168587682
  C   -3.196329213   0.102352395  -0.698395623
  C   -2.219841738   1.062683591  -0.481053051
  C   -1.096109736   0.747535166   0.279956062
  C   -0.961688547  -0.530439867   0.822729956
  C   -1.945393198  -1.485059650   0.592269402
  O   -0.159596496   1.717818673   0.458758190
  H    2.887848617  -0.673204690  -2.189298566
  H    2.037098044   0.739443139  -1.451367077
  H    1.425207191  -0.896281124  -1.169931930
  C    2.318466603  -0.302621432  -1.347887528
  N    3.169227845  -0.426458726  -0.124969650
  O    2.761264451   0.112294832   0.899533990
  O    4.197843391  -1.061409161  -0.204332692
