15
charge=0 charge_a=0 charge_b=0 selection_a=1-3 selection_b=4-15 scaling=1.0 benchmark_Eint=-7.151 benchmark_unit=kcal/mol group=OH-O
  O    3.333999454   0.411171256   0.000000000
  H    3.887689246   1.193969482   0.000000000
  H    2.422199545   0.738960793   0.000000000
  H   -2.818389581  -0.653355727  -0.888871135
  H   -2.818389581  -0.653355727   0.888871135
  H   -3.668331381   0.635625150   0.000000000
  H    1.415893902  -1.357886888   0.885042540
  H    1.415893902  -1.357886888  -0.885042540
  H    0.650716180  -2.707882679   0.000000000
  O   -1.666070437   0.842112531   0.000000000
  C   -0.439401698   0.325782866   0.000000000
  O    0.539613374   1.028010483   0.000000000
  O   -0.440773904  -1.009314980   0.000000000
  C    0.855274637  -1.643377460   0.000000000
  C   -2.810270185  -0.027543337   0.000000000
