10
charge=0 charge_a=0 charge_b=0 selection_a=1-3 selection_b=4-10 scaling=2.0 benchmark_Eint=-1.222 benchmark_unit=kcal/mol group=OH-O
  O   -2.153916054   0.260544038   0.000000000
  H   -1.423649291  -0.377504859   0.000000000
  H   -2.958877718  -0.260484419   0.000000000
  H    3.344744684   0.849834475   0.874523371
  H    3.344744684   0.849834475  -0.874523371
  H    1.790897873   0.711515015   0.000000000
  H    4.068861299  -1.405879154   0.000000000
  C    2.840334319   0.432013928   0.000000000
  C    3.020262778  -1.051949981   0.000000000
  O    2.124212929  -1.862010423   0.000000000
