15
charge=0 charge_a=0 charge_b=0 selection_a=1-3 selection_b=4-15 scaling=1.5 benchmark_Eint=-3.531 benchmark_unit=kcal/mol group=OH-O
  O    3.333999454   0.411171256   0.000000000
  H    3.887689246   1.193969482   0.000000000
  H    2.422199545   0.738960793   0.000000000
  H   -3.759682666  -0.508830882  -0.888871135
  H   -3.759682666  -0.508830882   0.888871135
  H   -4.609624466   0.780149995   0.000000000
  H    0.474600816  -1.213362043   0.885042540
  H    0.474600816  -1.213362043  -0.885042540
  H   -0.290576906  -2.563357834   0.000000000
  O   -2.607363522   0.986637376   0.000000000
  C   -1.380694784   0.470307711   0.000000000
  O   -0.401679712   1.172535328   0.000000000
  O   -1.382066990  -0.864790135   0.000000000
  C   -0.086018448  -1.498852615   0.000000000
  C   -3.751563270   0.116981508   0.000000000
