25
charge=0 charge_a=0 charge_b=0 selection_a=1-13 selection_b=14-25 scaling=0.8 benchmark_Eint=-6.496 benchmark_unit=kcal/mol group=OH-O
  H   -2.752615032  -2.172433111   0.081073602
  H   -4.204716470   1.798335712  -0.674693562
  H   -4.569861011  -0.652930895  -0.641192548
  H   -0.210159409   1.188426738   0.768297006
  H    0.446893056  -1.009372931   0.955726895
  H   -2.012969612   2.708967820   0.035075202
  C   -3.413881054   1.133471130  -0.359638272
  C   -3.615777978  -0.243193984  -0.339311360
  C   -2.604853585  -1.102274563   0.063383737
  C   -1.367914684  -0.590042901   0.457545555
  C   -1.162116742   0.791939215   0.445684352
  C   -2.182952460   1.640887326   0.036867483
  O   -0.410181885  -1.465688618   0.837173645
  C    3.783453936   0.734968698   0.589193778
  H    4.427907236   1.023598507  -0.238428005
  H    3.497927199   1.624433394   1.147685543
  H    4.337900336   0.087966004   1.266165202
  C    2.529314046   0.014767950   0.154313928
  O    1.712289702  -0.379036607   0.982914417
  N    2.368546601  -0.166814598  -1.170767069
  H    3.067507337   0.202144675  -1.788224221
  C    1.211570690  -0.835957175  -1.747067457
  H    1.035292613  -1.784778643  -1.247235651
  H    1.405611420  -1.017438383  -2.800079130
  H    0.312492421  -0.229663098  -1.648858225
