11
charge=0 charge_a=0 charge_b=0 selection_a=1-3 selection_b=4-11 scaling=2.0 benchmark_Eint=-1.211 benchmark_unit=kcal/mol group=OH-O
  O   -2.699524577   0.012605344   0.025141740
  H   -1.886669166  -0.515867939   0.009831151
  H   -3.398745037  -0.573585161  -0.269451403
  H    4.089279265  -1.650308380   0.004931200
  H    2.712214617   1.438046438  -0.836291225
  H    2.530032860   1.382478707   0.907612140
  H    1.125709235   1.023974785  -0.125463559
  O    1.825026120  -1.463241717  -0.019624167
  C    2.585373420  -0.523424657  -0.019838718
  O    3.921641988  -0.697586508  -0.008039227
  C    2.200520340   0.923979244  -0.024521395
