13
charge=0 charge_a=0 charge_b=0 selection_a=1-3 selection_b=4-13 scaling=0.95 benchmark_Eint=-6.646 benchmark_unit=kcal/mol group=OH-O
  O    2.708854782  -0.010936008  -0.008448999
  H    1.863798762  -0.489823812  -0.013073612
  H    3.374916630  -0.659170931   0.227069638
  H   -0.794073693   1.978962425   0.766086229
  H    0.819559339   1.513620425   0.155243456
  H   -0.515730094   1.869370244  -0.959617025
  H   -2.354100278  -1.354902153  -0.117894030
  H   -2.583780864   0.041108936   0.958830887
  C   -0.251070273   1.422757779   0.001354239
  C   -0.678302657  -0.022908208  -0.000807206
  O    0.123740235  -0.934265656  -0.013976104
  C   -2.161910823  -0.294097210   0.009317976
  H   -2.660296635   0.275992159  -0.775498959
