12
charge=0 charge_a=0 charge_b=0 selection_a=1-3 selection_b=4-12 scaling=0.8 benchmark_Eint=-1.892 benchmark_unit=kcal/mol group=OH-O
  O   -2.320324745   0.000000000   0.117314426
  H   -1.378458272  -0.000000000  -0.117152697
  H   -2.790829269  -0.000000000  -0.718347326
  H    0.170044641  -2.023260918  -0.231699277
  H    1.763631201  -1.236170762  -0.145082666
  H    0.682456501  -1.223291109   1.270344962
  H    0.170044641   2.023260918  -0.231699277
  H    1.763631201   1.236170762  -0.145082666
  H    0.682456501   1.223291109   1.270344962
  C    0.719675323  -1.180211636   0.177608139
  O    0.104988685  -0.000000000  -0.307153742
  C    0.719675323   1.180211636   0.177608139
