13
charge=0 charge_a=0 charge_b=0 selection_a=1-3 selection_b=4-13 scaling=1.0 benchmark_Eint=-6.840 benchmark_unit=kcal/mol group=OH-O
  O    2.708854782  -0.010936008  -0.008448999
  H    1.863798762  -0.489823812  -0.013073612
  H    3.374916630  -0.659170931   0.227069638
  H   -0.885655721   1.955570749   0.766038729
  H    0.727977311   1.490228749   0.155195956
  H   -0.607312122   1.845978568  -0.959664525
  H   -2.445682306  -1.378293829  -0.117941530
  H   -2.675362892   0.017717260   0.958783387
  C   -0.342652301   1.399366103   0.001306739
  C   -0.769884685  -0.046299884  -0.000854706
  O    0.032158207  -0.957657332  -0.014023604
  C   -2.253492851  -0.317488886   0.009270476
  H   -2.751878663   0.252600483  -0.775546459
