12
charge=0 charge_a=0 charge_b=0 selection_a=1-3 selection_b=4-12 scaling=0.85 benchmark_Eint=-5.811 benchmark_unit=kcal/mol group=OH-O
  O    2.648113351  -0.005062030   0.051270593
  H    1.805684032   0.476084405  -0.034687035
  H    3.300303128   0.656925041   0.286903343
  H   -2.484201814  -0.560050386   0.171211480
  H   -2.163937270   1.139263356   0.097919916
  H    0.847102038  -1.574646881   0.570486924
  H    0.225832108  -1.720001686  -1.060127260
  H   -0.817449902  -2.155270336   0.303732176
  O    0.295410280   0.908214916  -0.093135322
  C   -0.492487270  -0.023266466  -0.006008316
  N   -1.826356372   0.192600361   0.103476434
  C   -0.047845402  -1.465789330  -0.036321984
