11
charge=0 charge_a=0 charge_b=0 selection_a=1-3 selection_b=4-11 scaling=0.85 benchmark_Eint=-4.478 benchmark_unit=kcal/mol group=OH-O
  O   -2.699524577   0.012605344   0.025141740
  H   -1.886669166  -0.515867939   0.009831151
  H   -3.398745037  -0.573585161  -0.269451403
  H    1.955054476  -1.105568458   0.021868008
  H    0.577989828   1.982786360  -0.819354417
  H    0.395808071   1.927218629   0.924548948
  H   -1.008515554   1.568714707  -0.108526751
  O   -0.309198669  -0.918501795  -0.002687359
  C    0.451148631   0.021315265  -0.002901910
  O    1.787417199  -0.152846586   0.008897581
  C    0.066295551   1.468719166  -0.007584587
