26
charge=0 charge_a=0 charge_b=0 selection_a=1-13 selection_b=14-26 scaling=0.9 benchmark_Eint=-6.465 benchmark_unit=kcal/mol group=OH-O
  H    3.719065836  -1.313687998   1.330604713
  H    4.097090574   2.456498044  -0.691024802
  H    5.032438116   0.721488316   0.811288560
  H    0.541701056   0.108339415  -1.147048133
  H    0.507248069  -1.877655478   0.037291530
  H    1.842633980   2.132821060  -1.665795510
  C    3.527279449   1.567533901  -0.463808462
  C    4.049786945   0.591973684   0.379425274
  C    3.322980167  -0.550762363   0.676319786
  C    2.055163174  -0.730120569   0.125793914
  C    1.525671415   0.242597294  -0.721470070
  C    2.263634459   1.383704413  -1.009676372
  O    1.382165241  -1.865071186   0.452343155
  H   -0.661227921  -0.369682368   1.591259420
  H   -3.906377793   2.355016274   0.906477102
  H   -1.957687222   1.632110971   2.252791731
  H   -3.251353652  -0.930261148  -1.766678497
  H   -1.470859043  -2.280204307  -1.242927050
  H   -4.547693023   1.063292459  -1.106201057
  C   -3.341110799   1.481068602   0.618737624
  C   -2.247335551   1.073373944   1.374555811
  C   -1.514516899  -0.047504733   1.013242476
  C   -1.884997272  -0.761786855  -0.118767945
  C   -2.973276581  -0.366578583  -0.885087913
  C   -3.700239837   0.756757770  -0.510017338
  O   -1.124961650  -1.861734290  -0.450099254
