15
charge=0 charge_a=0 charge_b=0 selection_a=1-3 selection_b=4-15 scaling=0.95 benchmark_Eint=-6.983 benchmark_unit=kcal/mol group=OH-O
  O    3.333999454   0.411171256   0.000000000
  H    3.887689246   1.193969482   0.000000000
  H    2.422199545   0.738960793   0.000000000
  H   -2.724260272  -0.667808212  -0.888871135
  H   -2.724260272  -0.667808212   0.888871135
  H   -3.574202072   0.621172666   0.000000000
  H    1.510023211  -1.372339372   0.885042540
  H    1.510023211  -1.372339372  -0.885042540
  H    0.744845489  -2.722335164   0.000000000
  O   -1.571941128   0.827660046   0.000000000
  C   -0.345272389   0.311330382   0.000000000
  O    0.633742683   1.013557998   0.000000000
  O   -0.346644595  -1.023767464   0.000000000
  C    0.949403946  -1.657829944   0.000000000
  C   -2.716140876  -0.041995822   0.000000000
