26
charge=0 charge_a=0 charge_b=0 selection_a=1-13 selection_b=14-26 scaling=1.25 benchmark_Eint=-5.548 benchmark_unit=kcal/mol group=OH-O
  H    3.719065836  -1.313687998   1.330604713
  H    4.097090574   2.456498044  -0.691024802
  H    5.032438116   0.721488316   0.811288560
  H    0.541701056   0.108339415  -1.147048133
  H    0.507248069  -1.877655478   0.037291530
  H    1.842633980   2.132821060  -1.665795510
  C    3.527279449   1.567533901  -0.463808462
  C    4.049786945   0.591973684   0.379425274
  C    3.322980167  -0.550762363   0.676319786
  C    2.055163174  -0.730120569   0.125793914
  C    1.525671415   0.242597294  -0.721470070
  C    2.263634459   1.383704413  -1.009676372
  O    1.382165241  -1.865071186   0.452343155
  H   -1.295976144  -0.363490795   1.401718559
  H   -4.541126016   2.361207847   0.716936241
  H   -2.592435446   1.638302544   2.063250870
  H   -3.886101876  -0.924069575  -1.956219358
  H   -2.105607266  -2.274012734  -1.432467911
  H   -5.182441246   1.069484032  -1.295741918
  C   -3.975859022   1.487260175   0.429196763
  C   -2.882083774   1.079565517   1.185014950
  C   -2.149265122  -0.041313160   0.823701615
  C   -2.519745496  -0.755595282  -0.308308806
  C   -3.608024804  -0.360387010  -1.074628774
  C   -4.334988060   0.762949343  -0.699558199
  O   -1.759709874  -1.855542717  -0.639640115
