16
charge=0 charge_a=0 charge_b=0 selection_a=1-13 selection_b=14-16 scaling=1.05 benchmark_Eint=-6.883 benchmark_unit=kcal/mol group=OH-O
  H   -0.956051371  -2.354499290   0.000000000
  H   -3.336677373   1.219975701   0.000000000
  H   -3.174623169  -1.252898962   0.000000000
  H    0.945281895   1.470795290   0.000000000
  H    2.053323417  -0.540614013   0.000000000
  H   -1.262244213   2.573833817   0.000000000
  C   -2.370525400   0.737073486   0.000000000
  C   -2.276472964  -0.650949630   0.000000000
  C   -1.039402827  -1.277390569   0.000000000
  C    0.126077278  -0.512881429   0.000000000
  C    0.039938689   0.879342638   0.000000000
  C   -1.205794272   1.494028361   0.000000000
  O    1.314654888  -1.170357618   0.000000000
  O    3.649821110   0.597403240   0.000000000
  H    4.218291722   0.486092639   0.766820459
  H    4.218291722   0.486092639  -0.766820459
