13
charge=0 charge_a=0 charge_b=0 selection_a=1-3 selection_b=4-13 scaling=0.8 benchmark_Eint=-2.443 benchmark_unit=kcal/mol group=OH-O
  O    2.708854782  -0.010936008  -0.008448999
  H    1.863798762  -0.489823812  -0.013073612
  H    3.374916630  -0.659170931   0.227069638
  H   -0.519327610   2.049137453   0.766228727
  H    1.094305422   1.583795453   0.155385954
  H   -0.240984011   1.939545272  -0.959474527
  H   -2.079354195  -1.284727125  -0.117751532
  H   -2.309034781   0.111283964   0.958973385
  C    0.023675810   1.492932807   0.001496737
  C   -0.403556574   0.047266820  -0.000664708
  O    0.398486318  -0.864090628  -0.013833606
  C   -1.887164740  -0.223922182   0.009460474
  H   -2.385550552   0.346167187  -0.775356461
