25
charge=0 charge_a=0 charge_b=0 selection_a=1-13 selection_b=14-25 scaling=0.95 benchmark_Eint=-11.650 benchmark_unit=kcal/mol group=OH-O
  H   -2.752615032  -2.172433111   0.081073602
  H   -4.204716470   1.798335712  -0.674693562
  H   -4.569861011  -0.652930895  -0.641192548
  H   -0.210159409   1.188426738   0.768297006
  H    0.446893056  -1.009372931   0.955726895
  H   -2.012969612   2.708967820   0.035075202
  C   -3.413881054   1.133471130  -0.359638272
  C   -3.615777978  -0.243193984  -0.339311360
  C   -2.604853585  -1.102274563   0.063383737
  C   -1.367914684  -0.590042901   0.457545555
  C   -1.162116742   0.791939215   0.445684352
  C   -2.182952460   1.640887326   0.036867483
  O   -0.410181885  -1.465688618   0.837173645
  C    4.020715807   0.853156759   0.594291439
  H    4.665169107   1.141786568  -0.233330344
  H    3.735189070   1.742621455   1.152783204
  H    4.575162207   0.206154065   1.271262863
  C    2.766575917   0.132956011   0.159411589
  O    1.949551573  -0.260848546   0.988012078
  N    2.605808472  -0.048626537  -1.165669408
  H    3.304769208   0.320332736  -1.783126560
  C    1.448832561  -0.717769114  -1.741969796
  H    1.272554484  -1.666590582  -1.242137990
  H    1.642873291  -0.899250322  -2.794981469
  H    0.549754292  -0.111475037  -1.643760564
