26
charge=0 charge_a=0 charge_b=0 selection_a=1-13 selection_b=14-26 scaling=2.0 benchmark_Eint=-1.438 benchmark_unit=kcal/mol group=OH-O
  H    3.719065836  -1.313687998   1.330604713
  H    4.097090574   2.456498044  -0.691024802
  H    5.032438116   0.721488316   0.811288560
  H    0.541701056   0.108339415  -1.147048133
  H    0.507248069  -1.877655478   0.037291530
  H    1.842633980   2.132821060  -1.665795510
  C    3.527279449   1.567533901  -0.463808462
  C    4.049786945   0.591973684   0.379425274
  C    3.322980167  -0.550762363   0.676319786
  C    2.055163174  -0.730120569   0.125793914
  C    1.525671415   0.242597294  -0.721470070
  C    2.263634459   1.383704413  -1.009676372
  O    1.382165241  -1.865071186   0.452343155
  H   -2.656150910  -0.350223138   0.995559572
  H   -5.901300782   2.374475504   0.310777254
  H   -3.952610211   1.651570201   1.657091883
  H   -5.246276641  -0.910801918  -2.362378345
  H   -3.465782032  -2.260745077  -1.838626898
  H   -6.542616012   1.082751689  -1.701900905
  C   -5.336033788   1.500527832   0.023037776
  C   -4.242258540   1.092833174   0.778855963
  C   -3.509439888  -0.028045503   0.417542628
  C   -3.879920261  -0.742327625  -0.714467793
  C   -4.968199570  -0.347119353  -1.480787761
  C   -5.695162826   0.776217000  -1.105717186
  O   -3.119884639  -1.842275060  -1.045799102
