25
charge=0 charge_a=0 charge_b=0 selection_a=1-13 selection_b=14-25 scaling=2.0 benchmark_Eint=-3.006 benchmark_unit=kcal/mol group=OH-O
  H   -2.752615032  -2.172433111   0.081073602
  H   -4.204716470   1.798335712  -0.674693562
  H   -4.569861011  -0.652930895  -0.641192548
  H   -0.210159409   1.188426738   0.768297006
  H    0.446893056  -1.009372931   0.955726895
  H   -2.012969612   2.708967820   0.035075202
  C   -3.413881054   1.133471130  -0.359638272
  C   -3.615777978  -0.243193984  -0.339311360
  C   -2.604853585  -1.102274563   0.063383737
  C   -1.367914684  -0.590042901   0.457545555
  C   -1.162116742   0.791939215   0.445684352
  C   -2.182952460   1.640887326   0.036867483
  O   -0.410181885  -1.465688618   0.837173645
  C    5.681548904   1.680473184   0.629975062
  H    6.326002204   1.969102993  -0.197646721
  H    5.396022167   2.569937880   1.188466827
  H    6.235995304   1.033470490   1.306946486
  C    4.427409014   0.960272436   0.195095212
  O    3.610384670   0.566467879   1.023695701
  N    4.266641569   0.778689888  -1.129985785
  H    4.965602305   1.147649161  -1.747442937
  C    3.109665658   0.109547311  -1.706286173
  H    2.933387581  -0.839274157  -1.206454367
  H    3.303706388  -0.071933897  -2.759297846
  H    2.210587389   0.715841388  -1.608076941
