19
charge=0 charge_a=0 charge_b=0 selection_a=1-13 selection_b=14-19 scaling=0.85 benchmark_Eint=-4.034 benchmark_unit=kcal/mol group=OH-O
  H   -1.831955075  -2.194313324   0.716880308
  H   -3.597478641   1.702714459   0.343399267
  H   -3.727599332  -0.648917168   1.112518232
  H    0.307741403   0.938782517  -1.249185917
  H    1.156513652  -1.159236087  -0.783698350
  H   -1.565810272   2.485909083  -0.837184484
  C   -2.772979138   1.026861042   0.170844983
  C   -2.843613609  -0.294296959   0.601241969
  C   -1.788474058  -1.167444757   0.384422931
  C   -0.645326297  -0.721580004  -0.275140156
  C   -0.569786235   0.598452510  -0.716975489
  C   -1.632158142   1.464677480  -0.488775996
  O    0.365862254  -1.614436216  -0.460493769
  H    3.016473064   0.015388747   2.179006552
  H    1.701769993   1.070158429   1.687039462
  H    1.573527470  -0.691008402   1.343152930
  C    2.245267773   0.160239076   1.422605226
  N    2.940414325   0.459982423   0.161642161
  O    2.560326700  -0.174242623  -0.787704473
