12
charge=0 charge_a=0 charge_b=0 selection_a=1-3 selection_b=4-12 scaling=1.25 benchmark_Eint=-4.538 benchmark_unit=kcal/mol group=OH-O
  O   -2.320324745   0.000000000   0.117314426
  H   -1.378458272  -0.000000000  -0.117152697
  H   -2.790829269  -0.000000000  -0.718347326
  H    1.004483554  -2.023260918  -0.338574864
  H    2.598070114  -1.236170762  -0.251958254
  H    1.516895414  -1.223291109   1.163469374
  H    1.004483554   2.023260918  -0.338574864
  H    2.598070114   1.236170762  -0.251958254
  H    1.516895414   1.223291109   1.163469374
  C    1.554114236  -1.180211636   0.070732552
  O    0.939427598   0.000000000  -0.414029330
  C    1.554114236   1.180211636   0.070732552
