13
charge=0 charge_a=0 charge_b=0 selection_a=1-3 selection_b=4-13 scaling=1.25 benchmark_Eint=-5.267 benchmark_unit=kcal/mol group=OH-O
  O    2.708854782  -0.010936008  -0.008448999
  H    1.863798762  -0.489823812  -0.013073612
  H    3.374916630  -0.659170931   0.227069638
  H   -1.343565860   1.838612369   0.765801231
  H    0.270067172   1.373270369   0.154958458
  H   -1.065222261   1.729020188  -0.959902023
  H   -2.903592445  -1.495252209  -0.118179028
  H   -3.133273031  -0.099241120   0.958545889
  C   -0.800562440   1.282407723   0.001069241
  C   -1.227794824  -0.163258264  -0.001092204
  O   -0.425751932  -1.074615712  -0.014261102
  C   -2.711402990  -0.434447266   0.009032978
  H   -3.209788802   0.135642103  -0.775783957
