25
charge=0 charge_a=0 charge_b=0 selection_a=1-13 selection_b=14-25 scaling=1.5 benchmark_Eint=-6.639 benchmark_unit=kcal/mol group=OH-O
  H   -2.752615032  -2.172433111   0.081073602
  H   -4.204716470   1.798335712  -0.674693562
  H   -4.569861011  -0.652930895  -0.641192548
  H   -0.210159409   1.188426738   0.768297006
  H    0.446893056  -1.009372931   0.955726895
  H   -2.012969612   2.708967820   0.035075202
  C   -3.413881054   1.133471130  -0.359638272
  C   -3.615777978  -0.243193984  -0.339311360
  C   -2.604853585  -1.102274563   0.063383737
  C   -1.367914684  -0.590042901   0.457545555
  C   -1.162116742   0.791939215   0.445684352
  C   -2.182952460   1.640887326   0.036867483
  O   -0.410181885  -1.465688618   0.837173645
  C    4.890676000   1.286512982   0.612982860
  H    5.535129300   1.575142790  -0.214638922
  H    4.605149264   2.175977678   1.171474626
  H    5.445122400   0.639510288   1.289954284
  C    3.636536110   0.566312234   0.178103010
  O    2.819511766   0.172507676   1.006703500
  N    3.475768666   0.384729686  -1.146977986
  H    4.174729402   0.753688958  -1.764435138
  C    2.318792754  -0.284412892  -1.723278374
  H    2.142514678  -1.233234360  -1.223446568
  H    2.512833484  -0.465894100  -2.776290048
  H    1.419714486   0.321881186  -1.625069142
