26
charge=0 charge_a=0 charge_b=0 selection_a=1-13 selection_b=14-26 scaling=0.95 benchmark_Eint=-7.046 benchmark_unit=kcal/mol group=OH-O
  H    3.719065836  -1.313687998   1.330604713
  H    4.097090574   2.456498044  -0.691024802
  H    5.032438116   0.721488316   0.811288560
  H    0.541701056   0.108339415  -1.147048133
  H    0.507248069  -1.877655478   0.037291530
  H    1.842633980   2.132821060  -1.665795510
  C    3.527279449   1.567533901  -0.463808462
  C    4.049786945   0.591973684   0.379425274
  C    3.322980167  -0.550762363   0.676319786
  C    2.055163174  -0.730120569   0.125793914
  C    1.525671415   0.242597294  -0.721470070
  C    2.263634459   1.383704413  -1.009676372
  O    1.382165241  -1.865071186   0.452343155
  H   -0.751906238  -0.368797857   1.564182154
  H   -3.997056110   2.355900785   0.879399836
  H   -2.048365539   1.632995482   2.225714465
  H   -3.342031969  -0.929376637  -1.793755763
  H   -1.561537360  -2.279319796  -1.270004316
  H   -4.638371340   1.064176970  -1.133278323
  C   -3.431789116   1.481953113   0.591660358
  C   -2.338013868   1.074258455   1.347478545
  C   -1.605195216  -0.046620222   0.986165210
  C   -1.975675589  -0.760902344  -0.145845211
  C   -3.063954898  -0.365694072  -0.912165179
  C   -3.790918154   0.757642281  -0.537094604
  O   -1.215639967  -1.860849779  -0.477176520
