12
charge=0 charge_a=0 charge_b=0 selection_a=1-3 selection_b=4-12 scaling=2.0 benchmark_Eint=-1.096 benchmark_unit=kcal/mol group=OH-O
  O   -2.320324745   0.000000000   0.117314426
  H   -1.378458272  -0.000000000  -0.117152697
  H   -2.790829269  -0.000000000  -0.718347326
  H    2.395215076  -2.023260918  -0.516700844
  H    3.988801636  -1.236170762  -0.430084233
  H    2.907626936  -1.223291109   0.985343395
  H    2.395215076   2.023260918  -0.516700844
  H    3.988801636   1.236170762  -0.430084233
  H    2.907626936   1.223291109   0.985343395
  C    2.944845758  -1.180211636  -0.107393428
  O    2.330159120   0.000000000  -0.592155309
  C    2.944845758   1.180211636  -0.107393428
