12
charge=0 charge_a=0 charge_b=0 selection_a=1-3 selection_b=4-12 scaling=1.5 benchmark_Eint=-2.789 benchmark_unit=kcal/mol group=OH-O
  O   -2.320324745   0.000000000   0.117314426
  H   -1.378458272  -0.000000000  -0.117152697
  H   -2.790829269  -0.000000000  -0.718347326
  H    1.468060728  -2.023260918  -0.397950191
  H    3.061647288  -1.236170762  -0.311333580
  H    1.980472588  -1.223291109   1.104094048
  H    1.468060728   2.023260918  -0.397950191
  H    3.061647288   1.236170762  -0.311333580
  H    1.980472588   1.223291109   1.104094048
  C    2.017691410  -1.180211636   0.011357225
  O    1.403004772   0.000000000  -0.473404656
  C    2.017691410   1.180211636   0.011357225
