12
charge=0 charge_a=0 charge_b=0 selection_a=1-3 selection_b=4-12 scaling=0.95 benchmark_Eint=-5.882 benchmark_unit=kcal/mol group=OH-O
  O   -2.320324745   0.000000000   0.117314426
  H   -1.378458272  -0.000000000  -0.117152697
  H   -2.790829269  -0.000000000  -0.718347326
  H    0.448190945  -2.023260918  -0.267324473
  H    2.041777505  -1.236170762  -0.180707862
  H    0.960602805  -1.223291109   1.234719766
  H    0.448190945   2.023260918  -0.267324473
  H    2.041777505   1.236170762  -0.180707862
  H    0.960602805   1.223291109   1.234719766
  C    0.997821627  -1.180211636   0.141982943
  O    0.383134989  -0.000000000  -0.342778938
  C    0.997821627   1.180211636   0.141982943
