10
charge=0 charge_a=0 charge_b=0 selection_a=1-3 selection_b=4-10 scaling=1.05 benchmark_Eint=-6.281 benchmark_unit=kcal/mol group=OH-O
  O   -2.153916054   0.260544038   0.000000000
  H   -1.423649291  -0.377504859   0.000000000
  H   -2.958877718  -0.260484419   0.000000000
  H    1.659510130   1.554974618   0.874523371
  H    1.659510130   1.554974618  -0.874523371
  H    0.105663318   1.416655158   0.000000000
  H    2.383626744  -0.700739011   0.000000000
  C    1.155099764   1.137154071   0.000000000
  C    1.335028224  -0.346809838   0.000000000
  O    0.438978374  -1.156870280   0.000000000
