11
charge=0 charge_a=0 charge_b=0 selection_a=1-3 selection_b=4-11 scaling=0.9 benchmark_Eint=-5.746 benchmark_unit=kcal/mol group=OH-O
  O   -2.699524577   0.012605344   0.025141740
  H   -1.886669166  -0.515867939   0.009831151
  H   -3.398745037  -0.573585161  -0.269451403
  H    2.047846858  -1.129252802   0.021131625
  H    0.670782210   1.959102016  -0.820090800
  H    0.488600453   1.903534285   0.923812565
  H   -0.915723172   1.545030363  -0.109263134
  O   -0.216406287  -0.942186139  -0.003423742
  C    0.543941013  -0.002369079  -0.003638293
  O    1.880209581  -0.176530930   0.008161198
  C    0.159087933   1.445034822  -0.008320970
