13
charge=0 charge_a=0 charge_b=0 selection_a=1-3 selection_b=4-13 scaling=0.85 benchmark_Eint=-4.721 benchmark_unit=kcal/mol group=OH-O
  O    2.708854782  -0.010936008  -0.008448999
  H    1.863798762  -0.489823812  -0.013073612
  H    3.374916630  -0.659170931   0.227069638
  H   -0.610909638   2.025745777   0.766181228
  H    1.002723394   1.560403777   0.155338455
  H   -0.332566039   1.916153596  -0.959522026
  H   -2.170936223  -1.308118801  -0.117799031
  H   -2.400616809   0.087892288   0.958925886
  C   -0.067906218   1.469541131   0.001449238
  C   -0.495138602   0.023875144  -0.000712207
  O    0.306904290  -0.887482304  -0.013881105
  C   -1.978746768  -0.247313858   0.009412975
  H   -2.477132580   0.322775511  -0.775403960
