15
charge=0 charge_a=0 charge_b=0 selection_a=1-3 selection_b=4-15 scaling=0.9 benchmark_Eint=-6.386 benchmark_unit=kcal/mol group=OH-O
  O    3.333999454   0.411171256   0.000000000
  H    3.887689246   1.193969482   0.000000000
  H    2.422199545   0.738960793   0.000000000
  H   -2.630130964  -0.682260696  -0.888871135
  H   -2.630130964  -0.682260696   0.888871135
  H   -3.480072764   0.606720181   0.000000000
  H    1.604152519  -1.386791857   0.885042540
  H    1.604152519  -1.386791857  -0.885042540
  H    0.838974797  -2.736787648   0.000000000
  O   -1.477811820   0.813207562   0.000000000
  C   -0.251143081   0.296877897   0.000000000
  O    0.727871991   0.999105514   0.000000000
  O   -0.252515287  -1.038219949   0.000000000
  C    1.043533254  -1.672282429   0.000000000
  C   -2.622011568  -0.056448306   0.000000000
