14
charge=0 charge_a=0 charge_b=0 selection_a=1-3 selection_b=4-14 scaling=1.5 benchmark_Eint=-3.285 benchmark_unit=kcal/mol group=OH-O
  O   -2.895240919  -0.497989760   0.000000000
  H   -1.964204640  -0.766319753   0.000000000
  H   -3.397074245  -1.315014108   0.000000000
  H   -0.063725895   1.222364444  -0.884472404
  H    0.664194146   2.592049945   0.000000000
  H   -0.063725895   1.222364444   0.884472404
  H    3.797052134  -0.530537279  -0.877429992
  C    1.855904062  -0.411848858   0.000000000
  O    1.803089138   0.923413636   0.000000000
  C    0.491555970   1.521958359   0.000000000
  C    3.273909242  -0.907624749   0.000000000
  O    0.878804432  -1.125252344   0.000000000
  H    3.797052134  -0.530537279   0.877429992
  H    3.281225684  -1.991812181   0.000000000
