15
charge=0 charge_a=0 charge_b=0 selection_a=1-3 selection_b=4-15 scaling=1.1 benchmark_Eint=-7.916 benchmark_unit=kcal/mol group=OH-O
  O   -2.813847582  -0.579440373   0.000000000
  H   -1.864405486  -0.792150054   0.000000000
  H   -3.262956761  -1.426378985   0.000000000
  C    2.530213183  -0.793821943   0.000000000
  H    2.674060284  -1.420897016   0.877815376
  H    2.674060284  -1.420897016  -0.877815376
  H    3.277162085  -0.002531571   0.000000000
  C    1.108002347  -0.281717678   0.000000000
  O    0.156674376  -1.054954476   0.000000000
  N    0.951918057   1.058700508   0.000000000
  H    1.770987415   1.636998109   0.000000000
  C   -0.357879418   1.692308544   0.000000000
  H   -0.931230128   1.402652245   0.878089944
  H   -0.931230128   1.402652245  -0.878089944
  H   -0.221104974   2.769747928   0.000000000
