15
charge=0 charge_a=0 charge_b=0 selection_a=1-3 selection_b=4-15 scaling=1.05 benchmark_Eint=-8.214 benchmark_unit=kcal/mol group=OH-O
  O   -2.813847582  -0.579440373   0.000000000
  H   -1.864405486  -0.792150054   0.000000000
  H   -3.262956761  -1.426378985   0.000000000
  C    2.438345916  -0.781876288   0.000000000
  H    2.582193017  -1.408951361   0.877815376
  H    2.582193017  -1.408951361  -0.877815376
  H    3.185294818   0.009414084   0.000000000
  C    1.016135080  -0.269772023   0.000000000
  O    0.064807109  -1.043008821   0.000000000
  N    0.860050790   1.070646163   0.000000000
  H    1.679120148   1.648943764   0.000000000
  C   -0.449746685   1.704254199   0.000000000
  H   -1.023097395   1.414597900   0.878089944
  H   -1.023097395   1.414597900  -0.878089944
  H   -0.312972241   2.781693583   0.000000000
