16
charge=0 charge_a=0 charge_b=0 selection_a=1-8 selection_b=9-16 scaling=2.0 benchmark_Eint=-4.132 benchmark_unit=kcal/mol group=OH-O
  C    1.912545987  -0.057780332   0.000000000
  O    1.238974174  -1.078933568   0.000000000
  O    1.403277277   1.156430941   0.000000000
  H    0.402636075   1.121789389   0.000000000
  C    3.412740911  -0.073587659   0.000000000
  H    3.775203505  -1.095241731   0.000000000
  H    3.782363765   0.456370691  -0.876751219
  H    3.782363765   0.456370691   0.876751219
  H   -2.044246324  -1.164645210   0.000000000
  H   -5.423974014  -0.499226512   0.876751219
  H   -5.416813754   1.052385910   0.000000000
  H   -5.423974014  -0.499226512  -0.876751219
  O   -2.880584423   1.036077747   0.000000000
  C   -3.554156236   0.014924511   0.000000000
  O   -3.044887526  -1.199286762   0.000000000
  C   -5.054351160   0.030731838   0.000000000
