13
charge=0 charge_a=0 charge_b=0 selection_a=1-3 selection_b=4-13 scaling=0.9 benchmark_Eint=-4.574 benchmark_unit=kcal/mol group=OH-O
  O   -2.476583740   0.070717023   0.010162718
  H   -2.515708704  -0.114184442   0.950833203
  H   -1.550248247   0.291139125  -0.161496375
  H    1.167881502  -1.778411977  -1.047822450
  H    0.796973016  -2.540870510   0.523477423
  H   -0.530765028  -1.947478772  -0.507117993
  H    0.404473222   2.453690582  -0.590638541
  H    1.852884004   1.618444768   0.039271534
  H    0.443161720   1.898906462   1.102860357
  C    0.497339704  -1.772660354  -0.187459128
  O    0.606615416  -0.561112291   0.536127678
  O    0.174348966   0.484449607  -0.389728701
  C    0.765379172   1.679550313   0.083990618
