10
charge=0 charge_a=0 charge_b=0 selection_a=1-3 selection_b=4-10 scaling=1.05 benchmark_Eint=-5.827 benchmark_unit=kcal/mol group=OH-O
  O   -2.647490238  -0.017014849   0.109261531
  H   -1.908793644   0.582338804  -0.062111237
  H   -3.359157536   0.530775568   0.446246303
  H   -0.605327360  -1.304364349   0.385277088
  H    1.072935851  -1.980903396   0.294458985
  H    0.193539147  -1.489258460  -1.185378394
  C    0.350356660  -1.295384042  -0.127657334
  N    0.915825263   0.086339748  -0.029069493
  O    0.146524231   1.021235196  -0.216122327
  O    2.099810734   0.203033732   0.207816799
