14
charge=0 charge_a=0 charge_b=0 selection_a=1-3 selection_b=4-14 scaling=1.25 benchmark_Eint=-5.185 benchmark_unit=kcal/mol group=OH-O
  O   -2.895240919  -0.497989760   0.000000000
  H   -1.964204640  -0.766319753   0.000000000
  H   -3.397074245  -1.315014108   0.000000000
  H   -0.537560740   1.282186542  -0.884472404
  H    0.190359301   2.651872044   0.000000000
  H   -0.537560740   1.282186542   0.884472404
  H    3.323217288  -0.470715180  -0.877429992
  C    1.382069216  -0.352026760   0.000000000
  O    1.329254292   0.983235734   0.000000000
  C    0.017721125   1.581780458   0.000000000
  C    2.800074397  -0.847802650   0.000000000
  O    0.404969586  -1.065430246   0.000000000
  H    3.323217288  -0.470715180   0.877429992
  H    2.807390838  -1.931990082   0.000000000
