15
charge=0 charge_a=0 charge_b=0 selection_a=1-3 selection_b=4-15 scaling=0.95 benchmark_Eint=-8.126 benchmark_unit=kcal/mol group=OH-O
  O   -2.813847582  -0.579440373   0.000000000
  H   -1.864405486  -0.792150054   0.000000000
  H   -3.262956761  -1.426378985   0.000000000
  C    2.254611384  -0.757984976   0.000000000
  H    2.398458485  -1.385060049   0.877815376
  H    2.398458485  -1.385060049  -0.877815376
  H    3.001560286   0.033305396   0.000000000
  C    0.832400548  -0.245880711   0.000000000
  O   -0.118927423  -1.019117509   0.000000000
  N    0.676316258   1.094537475   0.000000000
  H    1.495385616   1.672835076   0.000000000
  C   -0.633481217   1.728145511   0.000000000
  H   -1.206831927   1.438489212   0.878089944
  H   -1.206831927   1.438489212  -0.878089944
  H   -0.496706773   2.805584895   0.000000000
