16
charge=0 charge_a=0 charge_b=0 selection_a=1-8 selection_b=9-16 scaling=1.05 benchmark_Eint=-20.285 benchmark_unit=kcal/mol group=OH-O
  C    1.912545987  -0.057780332   0.000000000
  O    1.238974174  -1.078933568   0.000000000
  O    1.403277277   1.156430941   0.000000000
  H    0.402636075   1.121789389   0.000000000
  C    3.412740911  -0.073587659   0.000000000
  H    3.775203505  -1.095241731   0.000000000
  H    3.782363765   0.456370691  -0.876751219
  H    3.782363765   0.456370691   0.876751219
  H   -0.484716587  -1.123932180   0.000000000
  H   -3.864444277  -0.458513482   0.876751219
  H   -3.857284017   1.093098940   0.000000000
  H   -3.864444277  -0.458513482  -0.876751219
  O   -1.321054686   1.076790777   0.000000000
  C   -1.994626499   0.055637541   0.000000000
  O   -1.485357789  -1.158573732   0.000000000
  C   -3.494821423   0.071444868   0.000000000
