16
charge=0 charge_a=0 charge_b=0 selection_a=1-8 selection_b=9-16 scaling=1.5 benchmark_Eint=-10.397 benchmark_unit=kcal/mol group=OH-O
  C    1.912545987  -0.057780332   0.000000000
  O    1.238974174  -1.078933568   0.000000000
  O    1.403277277   1.156430941   0.000000000
  H    0.402636075   1.121789389   0.000000000
  C    3.412740911  -0.073587659   0.000000000
  H    3.775203505  -1.095241731   0.000000000
  H    3.782363765   0.456370691  -0.876751219
  H    3.782363765   0.456370691   0.876751219
  H   -1.223441200  -1.143217300   0.000000000
  H   -4.603168890  -0.477798602   0.876751219
  H   -4.596008630   1.073813820   0.000000000
  H   -4.603168890  -0.477798602  -0.876751219
  O   -2.059779298   1.057505658   0.000000000
  C   -2.733351112   0.036352422   0.000000000
  O   -2.224082402  -1.177858852   0.000000000
  C   -4.233546036   0.052159749   0.000000000
