13
charge=0 charge_a=0 charge_b=0 selection_a=1-3 selection_b=4-13 scaling=1.05 benchmark_Eint=-5.127 benchmark_unit=kcal/mol group=OH-O
  O   -2.476583740   0.070717023   0.010162718
  H   -2.515708704  -0.114184442   0.950833203
  H   -1.550248247   0.291139125  -0.161496375
  H    1.455314371  -1.746193564  -1.085861171
  H    1.084405884  -2.508652097   0.485438702
  H   -0.243332160  -1.915260359  -0.545156714
  H    0.691906091   2.485908995  -0.628677262
  H    2.140316872   1.650663181   0.001232813
  H    0.730594589   1.931124875   1.064821636
  C    0.784772572  -1.740441941  -0.225497849
  O    0.894048284  -0.528893878   0.498088957
  O    0.461781834   0.516668020  -0.427767422
  C    1.052812040   1.711768726   0.045951897
