13
charge=0 charge_a=0 charge_b=0 selection_a=1-3 selection_b=4-13 scaling=2.0 benchmark_Eint=-0.887 benchmark_unit=kcal/mol group=OH-O
  O   -2.476583740   0.070717023   0.010162718
  H   -2.515708704  -0.114184442   0.950833203
  H   -1.550248247   0.291139125  -0.161496375
  H    3.275722540  -1.542143611  -1.326773070
  H    2.904814053  -2.304602144   0.244526803
  H    1.577076009  -1.711210406  -0.786068613
  H    2.512314260   2.689958948  -0.869589161
  H    3.960725041   1.854713134  -0.239679086
  H    2.551002758   2.135174828   0.823909737
  C    2.605180741  -1.536391988  -0.466409748
  O    2.714456453  -0.324843925   0.257177058
  O    2.282190003   0.720717973  -0.668679321
  C    2.873220209   1.915818679  -0.194960002
