12
charge=0 charge_a=0 charge_b=0 selection_a=1-3 selection_b=4-12 scaling=0.95 benchmark_Eint=-3.553 benchmark_unit=kcal/mol group=OH-O
  O   -3.168979061   0.031566438   0.057158001
  H   -2.271400588  -0.319570767   0.038140987
  H   -3.550834313  -0.206435184  -0.790285057
  H    2.884118640  -0.776097644   0.014662884
  H    2.090807811   1.842334215   0.002112443
  H    0.547209656  -2.197149145   0.009354788
  H   -0.647375278   1.723261836  -0.008457894
  C    1.460978308   0.971192254   0.000387925
  C    1.876774942  -0.400709315   0.007241793
  C    0.745440868  -1.142166377   0.004245230
  O   -0.348598713  -0.326293675  -0.005144679
  C    0.108488245   0.960726205  -0.006612371
