16
charge=0 charge_a=0 charge_b=0 selection_a=1-3 selection_b=4-16 scaling=0.85 benchmark_Eint=-3.035 benchmark_unit=kcal/mol group=OH-O
  O    3.643124100  -0.597811965  -0.020796782
  H    2.964630919   0.089448888  -0.026842507
  H    3.954319898  -0.635346600   0.885978140
  H    1.277383176  -1.536025778  -0.061373888
  H   -3.017638257  -1.500673376   0.026649896
  H   -0.882138219  -2.752997679  -0.029110662
  H   -0.830105966   2.184651647   0.026970744
  H    1.449592344   1.969445399  -0.058775762
  H   -2.980506599   0.975335556   0.051922026
  C   -2.076704029  -0.970802750   0.015285014
  C   -0.876102337  -1.672400054  -0.015274758
  C    0.338557780  -1.002324442  -0.031493706
  C    0.344739209   0.387412885  -0.015201212
  C   -0.846292440   1.102015170   0.014694990
  C   -2.055354723   0.417308031   0.029286080
  O    1.567340776   1.016645364  -0.027677300
