9
charge=0 charge_a=0 charge_b=0 selection_a=1-3 selection_b=4-9 scaling=2.0 benchmark_Eint=-1.078 benchmark_unit=kcal/mol group=OH-O
  O   -2.011851377   0.172486548  -0.057464338
  H   -1.115176959  -0.185826244   0.033281139
  H   -2.491709977  -0.144630420   0.709936574
  O    2.556707815  -1.104515336   0.073856883
  H    2.787635059  -1.672420595  -0.664712394
  C    3.348763194   0.083717700   0.019592313
  H    3.037087109   0.703637786   0.855282435
  H    3.181671104   0.636625698  -0.906280056
  H    4.411239090  -0.142851260   0.123764070
