9
charge=0 charge_a=0 charge_b=0 selection_a=1-3 selection_b=4-9 scaling=0.8 benchmark_Eint=-0.904 benchmark_unit=kcal/mol group=OH-O
  O    2.252064758  -0.204860672   0.000000000
  H    1.515521979   0.420353726   0.000000000
  H    3.050665278   0.326750978   0.000000000
  H   -1.092320198  -1.700823900   0.876067438
  H   -1.092320198  -1.700823900  -0.876067438
  H    0.465869902  -1.434013536   0.000000000
  C   -0.608555420  -1.265424737   0.000000000
  N   -0.969249387   0.162371422   0.000000000
  O   -0.034904514   0.919173235   0.000000000
