15
charge=0 charge_a=0 charge_b=0 selection_a=1-3 selection_b=4-15 scaling=0.9 benchmark_Eint=-7.465 benchmark_unit=kcal/mol group=OH-O
  O   -2.813847582  -0.579440373   0.000000000
  H   -1.864405486  -0.792150054   0.000000000
  H   -3.262956761  -1.426378985   0.000000000
  C    2.162744117  -0.746039321   0.000000000
  H    2.306591218  -1.373114394   0.877815376
  H    2.306591218  -1.373114394  -0.877815376
  H    2.909693019   0.045251051   0.000000000
  C    0.740533281  -0.233935056   0.000000000
  O   -0.210794690  -1.007171854   0.000000000
  N    0.584448991   1.106483130   0.000000000
  H    1.403518349   1.684780731   0.000000000
  C   -0.725348484   1.740091166   0.000000000
  H   -1.298699194   1.450434867   0.878089944
  H   -1.298699194   1.450434867  -0.878089944
  H   -0.588574040   2.817530550   0.000000000
