9
charge=0 charge_a=0 charge_b=0 selection_a=1-3 selection_b=4-9 scaling=1.05 benchmark_Eint=-5.673 benchmark_unit=kcal/mol group=OH-O
  O   -2.011851377   0.172486548  -0.057464338
  H   -1.115176959  -0.185826244   0.033281139
  H   -2.491709977  -0.144630420   0.709936574
  O    0.812562547  -0.668138017   0.054583405
  H    1.043489791  -1.236043276  -0.683985872
  C    1.604617926   0.520095019   0.000318835
  H    1.292941841   1.140015105   0.836008957
  H    1.437525836   1.073003017  -0.925553534
  H    2.667093822   0.293526059   0.104490592
