6
charge=0 charge_a=0 charge_b=0 selection_a=1-3 selection_b=4-6 scaling=1.25 benchmark_Eint=-3.798 benchmark_unit=kcal/mol group=OH-O
  O   -1.482906810   0.000000000   0.066553751
  H   -0.523433128   0.000000000  -0.062492370
  H   -1.857903264   0.000000000  -0.816212005
  O    1.899106516   0.000000000  -0.064905590
  H    2.217316819  -0.765012213   0.421958025
  H    2.217316819   0.765012213   0.421958025
