15
charge=0 charge_a=0 charge_b=0 selection_a=1-3 selection_b=4-15 scaling=2.0 benchmark_Eint=-1.860 benchmark_unit=kcal/mol group=OH-O
  O   -2.813847582  -0.579440373   0.000000000
  H   -1.864405486  -0.792150054   0.000000000
  H   -3.262956761  -1.426378985   0.000000000
  C    4.183823979  -1.008843743   0.000000000
  H    4.327671080  -1.635918816   0.877815376
  H    4.327671080  -1.635918816  -0.877815376
  H    4.930772881  -0.217553371   0.000000000
  C    2.761613143  -0.496739478   0.000000000
  O    1.810285172  -1.269976276   0.000000000
  N    2.605528853   0.843678708   0.000000000
  H    3.424598211   1.421976309   0.000000000
  C    1.295731378   1.477286744   0.000000000
  H    0.722380668   1.187630445   0.878089944
  H    0.722380668   1.187630445  -0.878089944
  H    1.432505822   2.554726128   0.000000000
