9
charge=0 charge_a=0 charge_b=0 selection_a=1-3 selection_b=4-9 scaling=0.85 benchmark_Eint=-3.809 benchmark_unit=kcal/mol group=OH-O
  O   -2.011851377   0.172486548  -0.057464338
  H   -1.115176959  -0.185826244   0.033281139
  H   -2.491709977  -0.144630420   0.709936574
  O    0.445374070  -0.576269108   0.050525830
  H    0.676301314  -1.144174367  -0.688043447
  C    1.237429449   0.611963928  -0.003738740
  H    0.925753364   1.231884014   0.831951382
  H    1.070337359   1.164871926  -0.929611109
  H    2.299905345   0.385394968   0.100433017
