9
charge=0 charge_a=0 charge_b=0 selection_a=1-3 selection_b=4-9 scaling=1.5 benchmark_Eint=-1.974 benchmark_unit=kcal/mol group=OH-O
  O    2.252064758  -0.204860672   0.000000000
  H    1.515521979   0.420353726   0.000000000
  H    3.050665278   0.326750978   0.000000000
  H   -2.448943379  -1.264356830   0.876067438
  H   -2.448943379  -1.264356830  -0.876067438
  H   -0.890753279  -0.997546466   0.000000000
  C   -1.965178601  -0.828957667   0.000000000
  N   -2.325872568   0.598838492   0.000000000
  O   -1.391527695   1.355640305   0.000000000
