21
charge=0 charge_a=0 charge_b=0 selection_a=1-13 selection_b=14-21 scaling=1.25 benchmark_Eint=-8.983 benchmark_unit=kcal/mol group=OH-O
  H   -1.811591436  -2.297506266  -0.214255093
  H   -4.465968539   0.853200008   0.994655395
  H   -3.987160005  -1.560723746   0.717053971
  H   -0.587517965   1.778982586  -0.585421635
  H    0.716014661  -0.013157309  -1.139574506
  H   -2.756196530   2.519453998   0.337586532
  C   -3.517935997   0.529670220   0.590928251
  C   -3.247109225  -0.825330403   0.434579676
  C   -2.031711454  -1.247869494  -0.084220334
  C   -1.077545279  -0.304983999  -0.450417877
  C   -1.336913397   1.053756182  -0.298850834
  C   -2.557930883   1.463277384   0.221699918
  O    0.111333231  -0.759532907  -0.955877787
  H    1.929399612  -1.147913872   0.385960175
  H    5.012923053   1.413740404   0.478133964
  H    5.343609710  -0.321213744   0.716599813
  H    4.546418735   0.588164962   1.987145566
  O    2.739312722   0.827513746  -0.521666581
  C    3.307877478   0.150754956   0.313064402
  O    2.803240742  -0.984308113   0.801982217
  C    4.641938119   0.489737646   0.906668590
