21
charge=0 charge_a=0 charge_b=0 selection_a=1-13 selection_b=14-21 scaling=0.85 benchmark_Eint=-8.740 benchmark_unit=kcal/mol group=OH-O
  H   -1.811591436  -2.297506266  -0.214255093
  H   -4.465968539   0.853200008   0.994655395
  H   -3.987160005  -1.560723746   0.717053971
  H   -0.587517965   1.778982586  -0.585421635
  H    0.716014661  -0.013157309  -1.139574506
  H   -2.756196530   2.519453998   0.337586532
  C   -3.517935997   0.529670220   0.590928251
  C   -3.247109225  -0.825330403   0.434579676
  C   -2.031711454  -1.247869494  -0.084220334
  C   -1.077545279  -0.304983999  -0.450417877
  C   -1.336913397   1.053756182  -0.298850834
  C   -2.557930883   1.463277384   0.221699918
  O    0.111333231  -0.759532907  -0.955877787
  H    1.275678410  -1.224884341   0.052451742
  H    4.359201851   1.336769935   0.144625531
  H    4.689888508  -0.398184213   0.383091380
  H    3.892697533   0.511194493   1.653637133
  O    2.085591520   0.750543277  -0.855175014
  C    2.654156276   0.073784487  -0.020444031
  O    2.149519540  -1.061278582   0.468473784
  C    3.988216917   0.412767177   0.573160157
