20
charge=0 charge_a=0 charge_b=0 selection_a=1-10 selection_b=11-20 scaling=0.8 benchmark_Eint=-2.526 benchmark_unit=kcal/mol group=NH-O
  H    1.872910612   1.615760631   1.577599301
  H    4.156630815   0.468183392   0.677824300
  H    3.406838421  -1.265292306  -1.268258158
  H    0.703316179  -1.069977399  -1.438352927
  N    0.949382559   0.363842415   0.116751746
  C    2.012608781   0.876124892   0.810299102
  C    3.155238336   0.276999621   0.334564423
  C    2.761946429  -0.631923260  -0.684994544
  C    1.393420547  -0.555460715  -0.795397508
  H   -0.018860715   0.608848340   0.257161109
  H   -2.410548180  -1.570508403   1.411646504
  H   -1.572242741  -2.625484509   0.239395831
  H   -0.624196262  -1.536930554   1.279214703
  H   -2.212159699   2.449997557  -0.136542068
  H   -3.315161116   1.180426347  -0.737707180
  H   -1.757773588   1.482080429  -1.563136417
  C   -1.560883661  -1.655394745   0.733145924
  O   -1.658530844  -0.721098222  -0.325084589
  O   -1.624764809   0.597175326   0.307897399
  C   -2.272470112   1.467565521  -0.601503721
