19
charge=0 charge_a=0 charge_b=0 selection_a=1-10 selection_b=11-19 scaling=1.25 benchmark_Eint=-4.993 benchmark_unit=kcal/mol group=NH-O
  H   -1.097702112   2.102332804   0.000000000
  H   -3.703458847   1.356107436   0.000000000
  H   -3.703458847  -1.356107436  -0.000000000
  H   -1.097702112  -2.102332804  -0.000000000
  N   -0.739838189   0.000000000   0.000000000
  C   -1.529134834   1.117786124   0.000000000
  C   -2.842967616   0.710479024   0.000000000
  C   -2.842967616  -0.710479024  -0.000000000
  C   -1.529134834  -1.117786124  -0.000000000
  H    0.271825628   0.000000000   0.000000000
  H    2.740976247   0.000000000  -2.022778845
  H    4.063820761   0.890136279  -1.234700078
  H    4.063820761  -0.890136279  -1.234700078
  H    2.740976247   0.000000000   2.022778845
  H    4.063820761   0.890136279   1.234700078
  H    4.063820761  -0.890136279   1.234700078
  C    3.429431134   0.000000000  -1.181942985
  O    2.652225822   0.000000000   0.000000000
  C    3.429431134   0.000000000   1.181942985
