19
charge=0 charge_a=0 charge_b=0 selection_a=1-10 selection_b=11-19 scaling=0.8 benchmark_Eint=-4.787 benchmark_unit=kcal/mol group=NH-O
  H   -1.475341610   1.545514807  -1.544797523
  H   -3.685790602  -0.025571607  -1.547030659
  H   -3.573857820  -1.475364755   0.741755600
  H   -1.303725966  -0.698042256   2.007427477
  N   -1.083594397   0.586466435   0.318771837
  C   -1.805571107   0.823968439  -0.819817267
  C   -2.916603519   0.012704892  -0.795953754
  C   -2.857310571  -0.748029146   0.402872584
  C   -1.712419040  -0.373056663   1.067825573
  H   -0.167779760   0.974865787   0.524858378
  H    1.560339666  -1.820886162  -0.977969505
  H    0.130876562  -0.986774920  -0.472688361
  H    3.688893299  -1.080380584  -0.642796921
  H    3.819185400  -0.121859503   0.845050990
  H    3.756742285   0.691471202  -0.709004089
  O    1.380036899   0.952212595   0.528116604
  C    1.879666739  -0.024012882  -0.017017016
  N    1.136190668  -1.031230787  -0.530727145
  C    3.378821294  -0.161971184  -0.149263321
