18
charge=0 charge_a=0 charge_b=0 selection_a=1-10 selection_b=11-18 scaling=0.8 benchmark_Eint=-2.439 benchmark_unit=kcal/mol group=NH-O
  H    1.488864990   0.425224049  -2.102696974
  H    3.826372294  -0.727365895  -1.355832704
  H    3.826372294  -0.727365895   1.355832704
  H    1.488864990   0.425224049   2.102696974
  N    1.170203652   0.586023419   0.000000000
  C    1.874717223   0.231131134  -1.118416757
  C    3.052389622  -0.351049769  -0.710455955
  C    3.052389622  -0.351049769   0.710455955
  C    1.874717223   0.231131134   1.118416757
  H    0.235991546   0.971291779   0.000000000
  H   -3.623254325   0.848566253   0.000000000
  H   -1.702274781  -1.948208510  -0.876714140
  H   -1.702274781  -1.948208510   0.876714140
  H   -0.276562897  -1.337639714   0.000000000
  O   -1.354735837   1.016831825   0.000000000
  C   -1.960749945  -0.028914681   0.000000000
  O   -3.307202092  -0.065924971   0.000000000
  C   -1.358568749  -1.401052467   0.000000000
