17
charge=0 charge_a=0 charge_b=0 selection_a=1-10 selection_b=11-17 scaling=1.1 benchmark_Eint=-5.788 benchmark_unit=kcal/mol group=NH-O
  H   -1.139048716   2.102858053   0.374852826
  H   -3.434472213   1.355855551  -0.858691131
  H   -3.434472213  -1.355855551  -0.858691131
  H   -1.139048716  -2.102858053   0.374852826
  N   -0.824109246  -0.000000000   0.543151809
  C   -1.517024352   1.118505274   0.166076477
  C   -2.674205539   0.710420501  -0.455483170
  C   -2.674205539  -0.710420501  -0.455483170
  C   -1.517024352  -1.118505274   0.166076477
  H    0.088293055  -0.000000000   0.978416275
  H    4.119728765   0.874786789  -1.402128435
  H    4.119728765  -0.874786789  -1.402128435
  H    4.700638435   0.000000000   0.044463129
  H    1.773634118   0.000000000  -0.997890726
  C    3.975394128   0.000000000  -0.764144895
  C    2.577026610   0.000000000  -0.237267577
  O    2.290164572   0.000000000   0.936268613
