19
charge=0 charge_a=0 charge_b=0 selection_a=1-10 selection_b=11-19 scaling=1.1 benchmark_Eint=-9.142 benchmark_unit=kcal/mol group=NH-O
  H   -1.475341610   1.545514807  -1.544797523
  H   -3.685790602  -0.025571607  -1.547030659
  H   -3.573857820  -1.475364755   0.741755600
  H   -1.303725966  -0.698042256   2.007427477
  N   -1.083594397   0.586466435   0.318771837
  C   -1.805571107   0.823968439  -0.819817267
  C   -2.916603519   0.012704892  -0.795953754
  C   -2.857310571  -0.748029146   0.402872584
  C   -1.712419040  -0.373056663   1.067825573
  H   -0.167779760   0.974865787   0.524858378
  H    2.140770913  -1.829381109  -0.976747670
  H    0.711307809  -0.995269867  -0.471466526
  H    4.269324546  -1.088875531  -0.641575086
  H    4.399616647  -0.130354450   0.846272825
  H    4.337173532   0.682976255  -0.707782254
  O    1.960468146   0.943717648   0.529338439
  C    2.460097986  -0.032507829  -0.015795181
  N    1.716621915  -1.039725734  -0.529505310
  C    3.959252541  -0.170466131  -0.148041486
