17
charge=0 charge_a=0 charge_b=0 selection_a=1-10 selection_b=11-17 scaling=0.85 benchmark_Eint=-4.217 benchmark_unit=kcal/mol group=NH-O
  H   -1.139048716   2.102858053   0.374852826
  H   -3.434472213   1.355855551  -0.858691131
  H   -3.434472213  -1.355855551  -0.858691131
  H   -1.139048716  -2.102858053   0.374852826
  N   -0.824109246  -0.000000000   0.543151809
  C   -1.517024352   1.118505274   0.166076477
  C   -2.674205539   0.710420501  -0.455483170
  C   -2.674205539  -0.710420501  -0.455483170
  C   -1.517024352  -1.118505274   0.166076477
  H    0.088293055  -0.000000000   0.978416275
  H    3.619303420   0.874786789  -1.392549421
  H    3.619303420  -0.874786789  -1.392549421
  H    4.200213090   0.000000000   0.054042143
  H    1.273208773   0.000000000  -0.988311712
  C    3.474968783   0.000000000  -0.754565881
  C    2.076601265   0.000000000  -0.227688563
  O    1.789739227  -0.000000000   0.945847627
