16
charge=0 charge_a=0 charge_b=0 selection_a=1-10 selection_b=11-16 scaling=0.85 benchmark_Eint=-4.380 benchmark_unit=kcal/mol group=NH-O
  H   -0.649851101   2.102472717  -0.238318218
  H   -3.159886656   1.356082809   0.461785006
  H   -3.159886656  -1.356082809   0.461785006
  H   -0.649851101  -2.102472717  -0.238318218
  N   -0.305714962  -0.000000000  -0.334466678
  C   -1.065324294   1.118110428  -0.121033150
  C   -2.330649709   0.710496943   0.231947451
  C   -2.330649709  -0.710496943   0.231947451
  C   -1.065324294  -1.118110428  -0.121033150
  H    0.671751839  -0.000000000  -0.589621459
  O    2.317290154  -0.000000000  -0.567681139
  H    3.025163758   0.000000000  -1.214608571
  C    2.864506090   0.000000000   0.750615796
  H    2.021534193   0.000000000   1.436429886
  H    3.467298164  -0.891138605   0.934472980
  H    3.467298164   0.891138605   0.934472980
