18
charge=0 charge_a=0 charge_b=0 selection_a=1-10 selection_b=11-18 scaling=0.9 benchmark_Eint=-5.914 benchmark_unit=kcal/mol group=NH-O
  H    1.488864990   0.425224049  -2.102696974
  H    3.826372294  -0.727365895  -1.355832704
  H    3.826372294  -0.727365895   1.355832704
  H    1.488864990   0.425224049   2.102696974
  N    1.170203652   0.586023419   0.000000000
  C    1.874717223   0.231131134  -1.118416757
  C    3.052389622  -0.351049769  -0.710455955
  C    3.052389622  -0.351049769   0.710455955
  C    1.874717223   0.231131134   1.118416757
  H    0.235991546   0.971291779   0.000000000
  H   -3.822095248   0.854258759   0.000000000
  H   -1.901115704  -1.942516004  -0.876714140
  H   -1.901115704  -1.942516004   0.876714140
  H   -0.475403820  -1.331947208   0.000000000
  O   -1.553576760   1.022524331   0.000000000
  C   -2.159590868  -0.023222175   0.000000000
  O   -3.506043015  -0.060232465   0.000000000
  C   -1.557409672  -1.395359961   0.000000000
