19
charge=0 charge_a=0 charge_b=0 selection_a=1-10 selection_b=11-19 scaling=1.05 benchmark_Eint=-9.518 benchmark_unit=kcal/mol group=NH-O
  H   -1.475341610   1.545514807  -1.544797523
  H   -3.685790602  -0.025571607  -1.547030659
  H   -3.573857820  -1.475364755   0.741755600
  H   -1.303725966  -0.698042256   2.007427477
  N   -1.083594397   0.586466435   0.318771837
  C   -1.805571107   0.823968439  -0.819817267
  C   -2.916603519   0.012704892  -0.795953754
  C   -2.857310571  -0.748029146   0.402872584
  C   -1.712419040  -0.373056663   1.067825573
  H   -0.167779760   0.974865787   0.524858378
  H    2.044032372  -1.827965284  -0.976951309
  H    0.614569268  -0.993854042  -0.471670165
  H    4.172586005  -1.087459706  -0.641778725
  H    4.302878106  -0.128938626   0.846069186
  H    4.240434991   0.684392080  -0.707985893
  O    1.863729605   0.945133472   0.529134800
  C    2.363359445  -0.031092004  -0.015998820
  N    1.619883374  -1.038309910  -0.529708949
  C    3.862514000  -0.169050306  -0.148245125
