18
charge=0 charge_a=0 charge_b=0 selection_a=1-10 selection_b=11-18 scaling=0.95 benchmark_Eint=-6.520 benchmark_unit=kcal/mol group=NH-O
  H    1.488864990   0.425224049  -2.102696974
  H    3.826372294  -0.727365895  -1.355832704
  H    3.826372294  -0.727365895   1.355832704
  H    1.488864990   0.425224049   2.102696974
  N    1.170203652   0.586023419   0.000000000
  C    1.874717223   0.231131134  -1.118416757
  C    3.052389622  -0.351049769  -0.710455955
  C    3.052389622  -0.351049769   0.710455955
  C    1.874717223   0.231131134   1.118416757
  H    0.235991546   0.971291779   0.000000000
  H   -3.921515710   0.857105012   0.000000000
  H   -2.000536166  -1.939669751  -0.876714140
  H   -2.000536166  -1.939669751   0.876714140
  H   -0.574824282  -1.329100955   0.000000000
  O   -1.652997222   1.025370584   0.000000000
  C   -2.259011330  -0.020375922   0.000000000
  O   -3.605463477  -0.057386212   0.000000000
  C   -1.656830134  -1.392513708   0.000000000
