22
charge=0 charge_a=0 charge_b=0 selection_a=1-10 selection_b=11-22 scaling=0.85 benchmark_Eint=-5.425 benchmark_unit=kcal/mol group=NH-O
  H    2.121219397   0.808470166  -2.011620335
  H    4.504290258  -0.407421353  -1.567615153
  H    4.644384543  -0.819167195   1.109177270
  H    2.338460794   0.169357947   2.137854866
  N    1.911263621   0.642749253   0.103505601
  C    2.558264929   0.470856076  -1.089383452
  C    3.760603329  -0.148348278  -0.834786291
  C    3.834031061  -0.363990769   0.567537301
  C    2.673736293   0.131433720   1.117226119
  H    0.967209372   0.986328211   0.204290222
  H   -4.087232292  -0.817599270   0.621546061
  H   -3.919046608  -0.626817840  -1.138106623
  H   -4.886824957   0.542786487  -0.205582809
  H    0.309337971  -1.267894585  -0.809588766
  H    0.153811825  -1.419388806   0.948333440
  H   -0.494162063  -2.700815154  -0.111576997
  O   -2.900302500   0.786434083   0.010702679
  C   -1.664655411   0.298617014   0.075390547
  O   -0.710653363   1.014277880   0.245800274
  O   -1.625530755  -1.029391190  -0.065852701
  C   -0.319547806  -1.636435250  -0.004672359
  C   -4.013771591  -0.100225186  -0.191864647
