20
charge=0 charge_a=0 charge_b=0 selection_a=1-10 selection_b=11-20 scaling=0.85 benchmark_Eint=-4.647 benchmark_unit=kcal/mol group=NH-O
  H    1.872910612   1.615760631   1.577599301
  H    4.156630815   0.468183392   0.677824300
  H    3.406838421  -1.265292306  -1.268258158
  H    0.703316179  -1.069977399  -1.438352927
  N    0.949382559   0.363842415   0.116751746
  C    2.012608781   0.876124892   0.810299102
  C    3.155238336   0.276999621   0.334564423
  C    2.761946429  -0.631923260  -0.684994544
  C    1.393420547  -0.555460715  -0.795397508
  H   -0.018860715   0.608848340   0.257161109
  H   -2.510917185  -1.571237966   1.414817523
  H   -1.672611746  -2.626214072   0.242566850
  H   -0.724565267  -1.537660117   1.282385722
  H   -2.312528704   2.449267994  -0.133371049
  H   -3.415530121   1.179696784  -0.734536161
  H   -1.858142593   1.481350866  -1.559965398
  C   -1.661252666  -1.656124308   0.736316943
  O   -1.758899849  -0.721827785  -0.321913570
  O   -1.725133814   0.596445763   0.311068418
  C   -2.372839117   1.466835958  -0.598332702
