21
charge=0 charge_a=0 charge_b=0 selection_a=1-10 selection_b=11-21 scaling=1.25 benchmark_Eint=-5.439 benchmark_unit=kcal/mol group=NH-O
  H    1.921751394   0.214616430   2.129529710
  H    4.372392430  -0.582303727   1.287127090
  H    4.351658464  -0.331648876  -1.413101366
  H    1.889702286   0.603730878  -2.056960005
  N    1.570058416   0.530103652   0.050126276
  C    2.320209368   0.159320574   1.132735865
  C    3.555098398  -0.240570452   0.676802304
  C    3.544223272  -0.109285592  -0.737935896
  C    2.303118140   0.365992052  -1.093633593
  H    0.598858289   0.811229561   0.083448956
  H   -4.240918297   1.460798628  -0.793435171
  H   -5.535172874   0.514905884  -0.005668954
  H   -4.273420493   1.315952170   0.972555985
  H   -0.664828421  -1.521311301  -0.172670872
  C   -2.412613842  -0.306707438  -0.014517575
  O   -3.746156865  -0.420481618  -0.049574956
  C   -4.491804951   0.806064408   0.037455550
  C   -1.739096175  -1.645944314  -0.094323940
  O   -1.850341376   0.761478062   0.079118370
  H   -2.119316283  -2.204004156  -0.947659484
  H   -1.975618079  -2.220479669   0.800818968
