19
charge=0 charge_a=0 charge_b=0 selection_a=1-10 selection_b=11-19 scaling=2.0 benchmark_Eint=-1.320 benchmark_unit=kcal/mol group=NH-O
  H   -1.097702112   2.102332804   0.000000000
  H   -3.703458847   1.356107436   0.000000000
  H   -3.703458847  -1.356107436  -0.000000000
  H   -1.097702112  -2.102332804  -0.000000000
  N   -0.739838189   0.000000000   0.000000000
  C   -1.529134834   1.117786124   0.000000000
  C   -2.842967616   0.710479024   0.000000000
  C   -2.842967616  -0.710479024  -0.000000000
  C   -1.529134834  -1.117786124  -0.000000000
  H    0.271825628   0.000000000   0.000000000
  H    4.169216363   0.000000000  -2.022778845
  H    5.492060877   0.890136279  -1.234700078
  H    5.492060877  -0.890136279  -1.234700078
  H    4.169216363   0.000000000   2.022778845
  H    5.492060877   0.890136279   1.234700078
  H    5.492060877  -0.890136279   1.234700078
  C    4.857671250   0.000000000  -1.181942985
  O    4.080465938   0.000000000   0.000000000
  C    4.857671250   0.000000000   1.181942985
