20
charge=0 charge_a=0 charge_b=0 selection_a=1-10 selection_b=11-20 scaling=2.0 benchmark_Eint=-1.095 benchmark_unit=kcal/mol group=NH-O
  H    1.872910612   1.615760631   1.577599301
  H    4.156630815   0.468183392   0.677824300
  H    3.406838421  -1.265292306  -1.268258158
  H    0.703316179  -1.069977399  -1.438352927
  N    0.949382559   0.363842415   0.116751746
  C    2.012608781   0.876124892   0.810299102
  C    3.155238336   0.276999621   0.334564423
  C    2.761946429  -0.631923260  -0.684994544
  C    1.393420547  -0.555460715  -0.795397508
  H   -0.018860715   0.608848340   0.257161109
  H   -4.819404320  -1.588017923   1.487750940
  H   -3.981098881  -2.642994029   0.315500267
  H   -3.033052402  -1.554440074   1.355319139
  H   -4.621015839   2.432488037  -0.060437632
  H   -5.724017256   1.162916827  -0.661602744
  H   -4.166629728   1.464570909  -1.487031981
  C   -3.969739801  -1.672904265   0.809250360
  O   -4.067386984  -0.738607742  -0.248980153
  O   -4.033620949   0.579665806   0.384001835
  C   -4.681326252   1.450056001  -0.525399285
