22
charge=0 charge_a=0 charge_b=0 selection_a=1-10 selection_b=11-22 scaling=0.9 benchmark_Eint=-6.720 benchmark_unit=kcal/mol group=NH-O
  H    2.121219397   0.808470166  -2.011620335
  H    4.504290258  -0.407421353  -1.567615153
  H    4.644384543  -0.819167195   1.109177270
  H    2.338460794   0.169357947   2.137854866
  N    1.911263621   0.642749253   0.103505601
  C    2.558264929   0.470856076  -1.089383452
  C    3.760603329  -0.148348278  -0.834786291
  C    3.834031061  -0.363990769   0.567537301
  C    2.673736293   0.131433720   1.117226119
  H    0.967209372   0.986328211   0.204290222
  H   -4.185930100  -0.815955171   0.623987828
  H   -4.017744416  -0.625173741  -1.135664856
  H   -4.985522765   0.544430586  -0.203141042
  H    0.210640163  -1.266250486  -0.807146998
  H    0.055114017  -1.417744707   0.950775208
  H   -0.592859871  -2.699171055  -0.109135230
  O   -2.999000308   0.788078182   0.013144446
  C   -1.763353219   0.300261113   0.077832314
  O   -0.809351171   1.015921979   0.248242042
  O   -1.724228563  -1.027747091  -0.063410934
  C   -0.418245614  -1.634791151  -0.002230592
  C   -4.112469399  -0.098581087  -0.189422880
