21
charge=0 charge_a=0 charge_b=0 selection_a=1-10 selection_b=11-21 scaling=0.95 benchmark_Eint=-6.884 benchmark_unit=kcal/mol group=NH-O
  H    1.921751394   0.214616430   2.129529710
  H    4.372392430  -0.582303727   1.287127090
  H    4.351658464  -0.331648876  -1.413101366
  H    1.889702286   0.603730878  -2.056960005
  N    1.570058416   0.530103652   0.050126276
  C    2.320209368   0.159320574   1.132735865
  C    3.555098398  -0.240570452   0.676802304
  C    3.544223272  -0.109285592  -0.737935896
  C    2.303118140   0.365992052  -1.093633593
  H    0.598858289   0.811229561   0.083448956
  H   -3.653110377   1.472738988  -0.792395831
  H   -4.947364954   0.526846244  -0.004629614
  H   -3.685612573   1.327892530   0.973595325
  H   -0.077020501  -1.509370941  -0.171631532
  C   -1.824805922  -0.294767078  -0.013478235
  O   -3.158348945  -0.408541258  -0.048535616
  C   -3.903997031   0.818004768   0.038494890
  C   -1.151288255  -1.634003954  -0.093284600
  O   -1.262533456   0.773418422   0.080157710
  H   -1.531508363  -2.192063796  -0.946620144
  H   -1.387810159  -2.208539309   0.801858308
