20
charge=0 charge_a=0 charge_b=0 selection_a=1-10 selection_b=11-20 scaling=1.1 benchmark_Eint=-5.918 benchmark_unit=kcal/mol group=NH-O
  H    1.872910612   1.615760631   1.577599301
  H    4.156630815   0.468183392   0.677824300
  H    3.406838421  -1.265292306  -1.268258158
  H    0.703316179  -1.069977399  -1.438352927
  N    0.949382559   0.363842415   0.116751746
  C    2.012608781   0.876124892   0.810299102
  C    3.155238336   0.276999621   0.334564423
  C    2.761946429  -0.631923260  -0.684994544
  C    1.393420547  -0.555460715  -0.795397508
  H   -0.018860715   0.608848340   0.257161109
  H   -3.012762215  -1.574885783   1.430672613
  H   -2.174456776  -2.629861889   0.258421940
  H   -1.226410297  -1.541307934   1.298240812
  H   -2.814373734   2.445620177  -0.117515959
  H   -3.917375151   1.176048967  -0.718681071
  H   -2.359987623   1.477703049  -1.544110308
  C   -2.163097696  -1.659772125   0.752172033
  O   -2.260744879  -0.725475602  -0.306058480
  O   -2.226978844   0.592797946   0.326923508
  C   -2.874684147   1.463188141  -0.582477612
