16
charge=0 charge_a=0 charge_b=0 selection_a=1-10 selection_b=11-16 scaling=0.8 benchmark_Eint=-2.253 benchmark_unit=kcal/mol group=NH-O
  H   -0.649851101   2.102472717  -0.238318218
  H   -3.159886656   1.356082809   0.461785006
  H   -3.159886656  -1.356082809   0.461785006
  H   -0.649851101  -2.102472717  -0.238318218
  N   -0.305714962  -0.000000000  -0.334466678
  C   -1.065324294   1.118110428  -0.121033150
  C   -2.330649709   0.710496943   0.231947451
  C   -2.330649709  -0.710496943   0.231947451
  C   -1.065324294  -1.118110428  -0.121033150
  H    0.671751839  -0.000000000  -0.589621459
  O    2.220493782  -0.000000000  -0.568971746
  H    2.928367386   0.000000000  -1.215899178
  C    2.767709718   0.000000000   0.749325189
  H    1.924737821   0.000000000   1.435139279
  H    3.370501792  -0.891138605   0.933182373
  H    3.370501792   0.891138605   0.933182373
