16
charge=0 charge_a=0 charge_b=0 selection_a=1-10 selection_b=11-16 scaling=1.0 benchmark_Eint=-6.262 benchmark_unit=kcal/mol group=NH-O
  H   -0.649851101   2.102472717  -0.238318218
  H   -3.159886656   1.356082809   0.461785006
  H   -3.159886656  -1.356082809   0.461785006
  H   -0.649851101  -2.102472717  -0.238318218
  N   -0.305714962  -0.000000000  -0.334466678
  C   -1.065324294   1.118110428  -0.121033150
  C   -2.330649709   0.710496943   0.231947451
  C   -2.330649709  -0.710496943   0.231947451
  C   -1.065324294  -1.118110428  -0.121033150
  H    0.671751839  -0.000000000  -0.589621459
  O    2.607679268   0.000000000  -0.563809318
  H    3.315552872   0.000000000  -1.210736750
  C    3.154895204   0.000000000   0.754487617
  H    2.311923307   0.000000000   1.440301707
  H    3.757687278  -0.891138605   0.938344801
  H    3.757687278   0.891138605   0.938344801
