20
charge=0 charge_a=0 charge_b=0 selection_a=1-10 selection_b=11-20 scaling=1.25 benchmark_Eint=-4.651 benchmark_unit=kcal/mol group=NH-O
  H    1.872910612   1.615760631   1.577599301
  H    4.156630815   0.468183392   0.677824300
  H    3.406838421  -1.265292306  -1.268258158
  H    0.703316179  -1.069977399  -1.438352927
  N    0.949382559   0.363842415   0.116751746
  C    2.012608781   0.876124892   0.810299102
  C    3.155238336   0.276999621   0.334564423
  C    2.761946429  -0.631923260  -0.684994544
  C    1.393420547  -0.555460715  -0.795397508
  H   -0.018860715   0.608848340   0.257161109
  H   -3.313869232  -1.577074473   1.440185668
  H   -2.475563793  -2.632050579   0.267934995
  H   -1.527517314  -1.543496624   1.307753867
  H   -3.115480751   2.443431487  -0.108002904
  H   -4.218482168   1.173860277  -0.709168016
  H   -2.661094640   1.475514359  -1.534597253
  C   -2.464204713  -1.661960815   0.761685088
  O   -2.561851896  -0.727664292  -0.296545425
  O   -2.528085861   0.590609256   0.336436563
  C   -3.175791164   1.460999451  -0.572964557
