17
charge=0 charge_a=0 charge_b=0 selection_a=1-10 selection_b=11-17 scaling=1.25 benchmark_Eint=-4.600 benchmark_unit=kcal/mol group=NH-O
  H   -1.139048716   2.102858053   0.374852826
  H   -3.434472213   1.355855551  -0.858691131
  H   -3.434472213  -1.355855551  -0.858691131
  H   -1.139048716  -2.102858053   0.374852826
  N   -0.824109246  -0.000000000   0.543151809
  C   -1.517024352   1.118505274   0.166076477
  C   -2.674205539   0.710420501  -0.455483170
  C   -2.674205539  -0.710420501  -0.455483170
  C   -1.517024352  -1.118505274   0.166076477
  H    0.088293055  -0.000000000   0.978416275
  H    4.419983972   0.874786789  -1.407875843
  H    4.419983972  -0.874786789  -1.407875843
  H    5.000893642   0.000000000   0.038715721
  H    2.073889325   0.000000000  -1.003638134
  C    4.275649335   0.000000000  -0.769892303
  C    2.877281817   0.000000000  -0.243014985
  O    2.590419779   0.000000000   0.930521205
