22
charge=0 charge_a=0 charge_b=0 selection_a=1-10 selection_b=11-22 scaling=1.05 benchmark_Eint=-7.398 benchmark_unit=kcal/mol group=NH-O
  H    2.121219397   0.808470166  -2.011620335
  H    4.504290258  -0.407421353  -1.567615153
  H    4.644384543  -0.819167195   1.109177270
  H    2.338460794   0.169357947   2.137854866
  N    1.911263621   0.642749253   0.103505601
  C    2.558264929   0.470856076  -1.089383452
  C    3.760603329  -0.148348278  -0.834786291
  C    3.834031061  -0.363990769   0.567537301
  C    2.673736293   0.131433720   1.117226119
  H    0.967209372   0.986328211   0.204290222
  H   -4.482023524  -0.811022877   0.631313132
  H   -4.313837840  -0.620241447  -1.128339552
  H   -5.281616189   0.549362880  -0.195815738
  H   -0.085453261  -1.261318192  -0.799821695
  H   -0.240979407  -1.412812413   0.958100511
  H   -0.888953295  -2.694238761  -0.101809926
  O   -3.295093732   0.793010476   0.020469750
  C   -2.059446643   0.305193407   0.085157618
  O   -1.105444595   1.020854273   0.255567345
  O   -2.020321987  -1.022814797  -0.056085630
  C   -0.714339038  -1.629858857   0.005094712
  C   -4.408562823  -0.093648793  -0.182097576
