22
charge=0 charge_a=0 charge_b=0 selection_a=1-10 selection_b=11-22 scaling=1.25 benchmark_Eint=-5.799 benchmark_unit=kcal/mol group=NH-O
  H    2.121219397   0.808470166  -2.011620335
  H    4.504290258  -0.407421353  -1.567615153
  H    4.644384543  -0.819167195   1.109177270
  H    2.338460794   0.169357947   2.137854866
  N    1.911263621   0.642749253   0.103505601
  C    2.558264929   0.470856076  -1.089383452
  C    3.760603329  -0.148348278  -0.834786291
  C    3.834031061  -0.363990769   0.567537301
  C    2.673736293   0.131433720   1.117226119
  H    0.967209372   0.986328211   0.204290222
  H   -4.876814756  -0.804446484   0.641080203
  H   -4.708629072  -0.613665054  -1.118572481
  H   -5.676407421   0.555939273  -0.186048667
  H   -0.480244493  -1.254741799  -0.790054624
  H   -0.635770639  -1.406236020   0.967867582
  H   -1.283744527  -2.687662368  -0.092042855
  O   -3.689884964   0.799586869   0.030236821
  C   -2.454237875   0.311769800   0.094924689
  O   -1.500235827   1.027430666   0.265334416
  O   -2.415113219  -1.016238404  -0.046318559
  C   -1.109130270  -1.623282464   0.014861783
  C   -4.803354055  -0.087072400  -0.172330505
