16
charge=0 charge_a=0 charge_b=0 selection_a=1-10 selection_b=11-16 scaling=1.5 benchmark_Eint=-2.982 benchmark_unit=kcal/mol group=NH-O
  H   -0.649851101   2.102472717  -0.238318218
  H   -3.159886656   1.356082809   0.461785006
  H   -3.159886656  -1.356082809   0.461785006
  H   -0.649851101  -2.102472717  -0.238318218
  N   -0.305714962  -0.000000000  -0.334466678
  C   -1.065324294   1.118110428  -0.121033150
  C   -2.330649709   0.710496943   0.231947451
  C   -2.330649709  -0.710496943   0.231947451
  C   -1.065324294  -1.118110428  -0.121033150
  H    0.671751839  -0.000000000  -0.589621459
  O    3.575642982   0.000000000  -0.550903248
  H    4.283516586   0.000000000  -1.197830680
  C    4.122858918   0.000000000   0.767393688
  H    3.279887022   0.000000000   1.453207778
  H    4.725650992  -0.891138605   0.951250872
  H    4.725650992   0.891138605   0.951250872
