17
charge=0 charge_a=0 charge_b=0 selection_a=1-10 selection_b=11-17 scaling=0.8 benchmark_Eint=-1.984 benchmark_unit=kcal/mol group=NH-O
  H   -1.139048716   2.102858053   0.374852826
  H   -3.434472213   1.355855551  -0.858691131
  H   -3.434472213  -1.355855551  -0.858691131
  H   -1.139048716  -2.102858053   0.374852826
  N   -0.824109246  -0.000000000   0.543151809
  C   -1.517024352   1.118505274   0.166076477
  C   -2.674205539   0.710420501  -0.455483170
  C   -2.674205539  -0.710420501  -0.455483170
  C   -1.517024352  -1.118505274   0.166076477
  H    0.088293055  -0.000000000   0.978416275
  H    3.519218351   0.874786789  -1.390633618
  H    3.519218351  -0.874786789  -1.390633618
  H    4.100128021   0.000000000   0.055957946
  H    1.173123704   0.000000000  -0.986395909
  C    3.374883714   0.000000000  -0.752650078
  C    1.976516196   0.000000000  -0.225772760
  O    1.689654158  -0.000000000   0.947763430
