20
charge=0 charge_a=0 charge_b=0 selection_a=1-10 selection_b=11-20 scaling=1.1 benchmark_Eint=-6.301 benchmark_unit=kcal/mol group=NH-O
  H   -2.046465937  -2.118041588   0.127141954
  H   -3.432692367  -0.152995747   1.377381611
  H   -2.417466027   2.184665965   0.450595429
  H   -0.470651176   1.505254751  -1.313718647
  N   -1.044485474  -0.485530656  -0.811081627
  C   -1.956786696  -1.050974046   0.037022299
  C   -2.637923215  -0.033045467   0.662654102
  C   -2.103362692   1.192280208   0.179189249
  C   -1.114603380   0.878840198  -0.724112621
  H   -0.313865261  -0.981349578  -1.293043931
  H    2.279345876  -0.438401752   2.264736852
  H    1.379411982  -1.674532617   1.340826206
  H    0.700888366  -0.059170168   1.584307081
  H    3.260925144   1.508902837  -0.805756947
  H    3.834306774   1.114580151   0.831334226
  C    1.623417822  -0.619322796   1.413817572
  C    2.242667332  -0.130820075   0.129288762
  O    2.151762722  -0.756276981  -0.905899249
  C    2.955968158   1.197400059   0.188578363
  H    2.305254116   1.949947879   0.636019525
