21
charge=0 charge_a=0 charge_b=0 selection_a=1-10 selection_b=11-21 scaling=0.8 benchmark_Eint=-2.700 benchmark_unit=kcal/mol group=NH-O
  H    1.921751394   0.214616430   2.129529710
  H    4.372392430  -0.582303727   1.287127090
  H    4.351658464  -0.331648876  -1.413101366
  H    1.889702286   0.603730878  -2.056960005
  N    1.570058416   0.530103652   0.050126276
  C    2.320209368   0.159320574   1.132735865
  C    3.555098398  -0.240570452   0.676802304
  C    3.544223272  -0.109285592  -0.737935896
  C    2.303118140   0.365992052  -1.093633593
  H    0.598858289   0.811229561   0.083448956
  H   -3.359206418   1.478709168  -0.791876160
  H   -4.653460995   0.532816424  -0.004109943
  H   -3.391708614   1.333862710   0.974114996
  H    0.216883458  -1.503400761  -0.171111861
  C   -1.530901963  -0.288796898  -0.012958564
  O   -2.864444986  -0.402571078  -0.048015945
  C   -3.610093072   0.823974948   0.039014561
  C   -0.857384296  -1.628033774  -0.092764929
  O   -0.968629497   0.779388602   0.080677381
  H   -1.237604404  -2.186093616  -0.946100473
  H   -1.093906200  -2.202569129   0.802377979
