17
charge=0 charge_a=0 charge_b=0 selection_a=1-10 selection_b=11-17 scaling=1.0 benchmark_Eint=-6.188 benchmark_unit=kcal/mol group=NH-O
  H   -1.139048716   2.102858053   0.374852826
  H   -3.434472213   1.355855551  -0.858691131
  H   -3.434472213  -1.355855551  -0.858691131
  H   -1.139048716  -2.102858053   0.374852826
  N   -0.824109246  -0.000000000   0.543151809
  C   -1.517024352   1.118505274   0.166076477
  C   -2.674205539   0.710420501  -0.455483170
  C   -2.674205539  -0.710420501  -0.455483170
  C   -1.517024352  -1.118505274   0.166076477
  H    0.088293055  -0.000000000   0.978416275
  H    3.919558627   0.874786789  -1.398296829
  H    3.919558627  -0.874786789  -1.398296829
  H    4.500468297   0.000000000   0.048294735
  H    1.573463980   0.000000000  -0.994059120
  C    3.775223990   0.000000000  -0.760313289
  C    2.376856472   0.000000000  -0.233435971
  O    2.089994434   0.000000000   0.940100219
