14
charge=0 charge_a=0 charge_b=0 selection_a=1-4 selection_b=5-14 scaling=2.0 benchmark_Eint=-0.707 benchmark_unit=kcal/mol group=NH-O
  N    2.942549562  -0.009879713   0.025692996
  H    2.086252920  -0.555572282  -0.007467359
  H    3.469718954  -0.318336430   0.832750088
  H    3.488666027  -0.249540486  -0.792067471
  H   -2.863515015   1.478385743   0.793820215
  H   -1.352303475   0.960263393  -0.005594522
  H   -2.786333908   1.427210714  -0.953773589
  H   -4.676181779  -1.747706514  -0.058660845
  H   -4.827445481  -0.280171319   0.935954819
  C   -2.437184567   0.928773953  -0.046997928
  C   -2.933118177  -0.496796328  -0.038812774
  O   -2.177084992  -1.443508470  -0.067349275
  C   -4.430978238  -0.692063158   0.006131330
  H   -4.909363701  -0.146863909  -0.808722260
