14
charge=0 charge_a=0 charge_b=0 selection_a=1-4 selection_b=5-14 scaling=0.95 benchmark_Eint=-4.056 benchmark_unit=kcal/mol group=NH-O
  N    2.942549562  -0.009879713   0.025692996
  H    2.086252920  -0.555572282  -0.007467359
  H    3.469718954  -0.318336430   0.832750088
  H    3.488666027  -0.249540486  -0.792067471
  H   -0.625262611   1.944552242   0.825258221
  H    0.885948929   1.426429892   0.025843484
  H   -0.548081504   1.893377213  -0.922335583
  H   -2.437929375  -1.281540015  -0.027222839
  H   -2.589193077   0.185995180   0.967392825
  C   -0.198932163   1.394940452  -0.015559922
  C   -0.694865773  -0.030629829  -0.007374768
  O    0.061167412  -0.977341971  -0.035911269
  C   -2.192725834  -0.225896659   0.037569336
  H   -2.671111297   0.319302590  -0.777284254
