22
charge=0 charge_a=0 charge_b=0 selection_a=1-10 selection_b=11-22 scaling=0.8 benchmark_Eint=-4.279 benchmark_unit=kcal/mol group=NH-O
  H    1.723540500   0.439220656  -2.100794984
  H    4.183896156  -0.425803792  -1.356244732
  H    4.183896156  -0.425803792   1.356244732
  H    1.723540500   0.439220656   2.100794984
  N    1.387995065   0.559671848   0.000000000
  C    2.129546398   0.291117564  -1.116441476
  C    3.370215255  -0.146393270  -0.710246035
  C    3.370215255  -0.146393270   0.710246035
  C    2.129546398   0.291117564   1.116441476
  H    0.408915015   0.824469584   0.000000000
  C   -3.483372398   0.797857148   0.000000000
  H   -3.600072239   1.430817811   0.877607624
  H   -3.600072239   1.430817811  -0.877607624
  H   -4.263453587   0.039340105   0.000000000
  C   -2.084510839   0.226075856   0.000000000
  O   -1.100262069   0.957131162   0.000000000
  N   -1.985176165  -1.120103566   0.000000000
  H   -2.828069385  -1.663333959   0.000000000
  C   -0.705326477  -1.810269273   0.000000000
  H   -0.119567324  -1.548622278  -0.878901520
  H   -0.887979764  -2.880741034   0.000000000
  H   -0.119567324  -1.548622278   0.878901520
