23
charge=0 charge_a=0 charge_b=0 selection_a=1-10 selection_b=11-23 scaling=1.25 benchmark_Eint=-4.050 benchmark_unit=kcal/mol group=NH-O
  H    3.599316195  -1.696269673   0.855904281
  H    5.183045160   0.410665519   0.228065770
  H    3.561389076   2.244517552  -0.939007943
  H    1.080409137   1.148117417  -0.949790847
  N    2.062752598  -0.493712651  -0.008643621
  C    3.346846845  -0.765940719   0.380551103
  C    4.126205207   0.317526558   0.050513890
  C    3.276154987   1.278558359  -0.561211552
  C    2.007952240   0.748177730  -0.583216275
  H    1.272007734  -1.107262198   0.105631486
  H   -0.904047572   0.101119123   1.616603741
  H   -4.422531342   1.955693276   0.003916339
  H   -2.459882906   2.022279546   1.513086600
  H   -3.261546081  -1.959190194  -1.297425991
  H   -1.364033289  -2.789347754  -0.321443739
  H   -4.816336622  -0.046495983  -1.398999156
  C   -3.743847950   1.117065424   0.050624755
  C   -2.641814628   1.152746885   0.897922917
  C   -1.764555471   0.080143036   0.964864788
  C   -1.994903237  -1.036680865   0.170952575
  C   -3.091418205  -1.085589334  -0.680814412
  C   -3.964131403  -0.005918769  -0.735862245
  O   -1.093759521  -2.072399089   0.258773670
