22
charge=0 charge_a=0 charge_b=0 selection_a=1-10 selection_b=11-22 scaling=1.25 benchmark_Eint=-7.145 benchmark_unit=kcal/mol group=NH-O
  H    1.723540500   0.439220656  -2.100794984
  H    4.183896156  -0.425803792  -1.356244732
  H    4.183896156  -0.425803792   1.356244732
  H    1.723540500   0.439220656   2.100794984
  N    1.387995065   0.559671848   0.000000000
  C    2.129546398   0.291117564  -1.116441476
  C    3.370215255  -0.146393270  -0.710246035
  C    3.370215255  -0.146393270   0.710246035
  C    2.129546398   0.291117564   1.116441476
  H    0.408915015   0.824469584   0.000000000
  C   -4.332284508   0.872479286  -0.000000000
  H   -4.448984349   1.505439949   0.877607624
  H   -4.448984349   1.505439949  -0.877607624
  H   -5.112365697   0.113962243  -0.000000000
  C   -2.933422949   0.300697994  -0.000000000
  O   -1.949174179   1.031753300  -0.000000000
  N   -2.834088275  -1.045481428  -0.000000000
  H   -3.676981495  -1.588711821  -0.000000000
  C   -1.554238587  -1.735647135  -0.000000000
  H   -0.968479434  -1.474000140  -0.878901520
  H   -1.736891874  -2.806118896  -0.000000000
  H   -0.968479434  -1.474000140   0.878901520
