11
charge=0 charge_a=0 charge_b=0 selection_a=1-4 selection_b=5-11 scaling=0.9 benchmark_Eint=-3.447 benchmark_unit=kcal/mol group=NH-O
  N   -2.378616155  -0.173103490   0.000000000
  H   -1.607872674   0.487848479   0.000000000
  H   -2.948252456   0.023192728   0.813288088
  H   -2.948252456   0.023192728  -0.813288088
  H    1.211474713  -1.762173233  -0.874267493
  H    1.211474713  -1.762173233   0.874267493
  H   -0.318790135  -1.443259527   0.000000000
  H    2.187394982   0.397631822   0.000000000
  C    0.757232970  -1.289311880   0.000000000
  C    1.102944425   0.167032101   0.000000000
  O    0.303571292   1.070140397   0.000000000
