23
charge=0 charge_a=0 charge_b=0 selection_a=1-10 selection_b=11-23 scaling=2.0 benchmark_Eint=-0.976 benchmark_unit=kcal/mol group=NH-O
  H    3.599316195  -1.696269673   0.855904281
  H    5.183045160   0.410665519   0.228065770
  H    3.561389076   2.244517552  -0.939007943
  H    1.080409137   1.148117417  -0.949790847
  N    2.062752598  -0.493712651  -0.008643621
  C    3.346846845  -0.765940719   0.380551103
  C    4.126205207   0.317526558   0.050513890
  C    3.276154987   1.278558359  -0.561211552
  C    2.007952240   0.748177730  -0.583216275
  H    1.272007734  -1.107262198   0.105631486
  H   -2.323507925  -0.477963012   1.708489051
  H   -5.841991695   1.376611141   0.095801649
  H   -3.879343259   1.443197411   1.604971910
  H   -4.681006434  -2.538272329  -1.205540681
  H   -2.783493642  -3.368429889  -0.229558429
  H   -6.235796975  -0.625578118  -1.307113846
  C   -5.163308303   0.537983289   0.142510065
  C   -4.061274981   0.573664750   0.989808227
  C   -3.184015824  -0.498939099   1.056750098
  C   -3.414363590  -1.615763000   0.262837885
  C   -4.510878558  -1.664671469  -0.588929102
  C   -5.383591756  -0.585000904  -0.643976935
  O   -2.513219874  -2.651481224   0.350658980
