16
charge=0 charge_a=0 charge_b=0 selection_a=1-4 selection_b=5-16 scaling=0.85 benchmark_Eint=-3.113 benchmark_unit=kcal/mol group=NH-O
  N    3.219629555  -0.632154438   0.639868370
  H    2.474939535  -0.928226606   0.016905524
  H    3.308037962  -1.335631672   1.362189912
  H    4.081883341  -0.644978177   0.109847531
  H   -1.967596816   0.182826268   1.750070502
  H   -2.636596461   0.685790892   0.182585513
  H   -3.111152573  -0.878517605   0.890136954
  H    1.312571500   1.748934453  -1.125937464
  H    1.956706510   1.284134686   0.465625086
  H    0.930594489   2.743783836   0.305857818
  O   -1.259904440  -0.880119608   0.099845511
  C   -0.110110294  -0.266438962  -0.189382739
  O    0.786959245  -0.832837552  -0.755084772
  O   -0.095983822   1.008353133   0.214835255
  C    1.118625222   1.738912409  -0.056181770
  C   -2.304149434  -0.162762903   0.775647536
