14
charge=0 charge_a=0 charge_b=0 selection_a=1-4 selection_b=5-14 scaling=0.85 benchmark_Eint=-2.623 benchmark_unit=kcal/mol group=NH-O
  N    2.942549562  -0.009879713   0.025692996
  H    2.086252920  -0.555572282  -0.007467359
  H    3.469718954  -0.318336430   0.832750088
  H    3.488666027  -0.249540486  -0.792067471
  H   -0.412095716   1.988949051   0.828252317
  H    1.099115824   1.470826701   0.028837580
  H   -0.334914609   1.937774022  -0.919341487
  H   -2.224762480  -1.237143206  -0.024228743
  H   -2.376026182   0.230391989   0.970386921
  C    0.014234732   1.439337261  -0.012565826
  C   -0.481698878   0.013766980  -0.004380672
  O    0.274334307  -0.932945162  -0.032917173
  C   -1.979558939  -0.181499850   0.040563432
  H   -2.457944402   0.363699399  -0.774290158
