14
charge=0 charge_a=0 charge_b=0 selection_a=1-4 selection_b=5-14 scaling=1.1 benchmark_Eint=-3.954 benchmark_unit=kcal/mol group=NH-O
  N    2.942549562  -0.009879713   0.025692996
  H    2.086252920  -0.555572282  -0.007467359
  H    3.469718954  -0.318336430   0.832750088
  H    3.488666027  -0.249540486  -0.792067471
  H   -0.945012955   1.877957028   0.820767077
  H    0.566198585   1.359834678   0.021352340
  H   -0.867831848   1.826781999  -0.926826727
  H   -2.757679719  -1.348135229  -0.031713983
  H   -2.908943421   0.119399966   0.962901681
  C   -0.518682507   1.328345238  -0.020051066
  C   -1.014616117  -0.097225043  -0.011865912
  O   -0.258582932  -1.043937185  -0.040402413
  C   -2.512476178  -0.292491873   0.033078192
  H   -2.990861641   0.252707376  -0.781775398
