13
charge=0 charge_a=0 charge_b=0 selection_a=1-4 selection_b=5-13 scaling=0.85 benchmark_Eint=-2.252 benchmark_unit=kcal/mol group=NH-O
  N   -2.346918027   0.000000000   0.094855168
  H   -1.480809280   0.000000000  -0.434408038
  H   -2.878195419  -0.813163079  -0.189038305
  H   -2.878195419   0.813163079  -0.189038305
  H    0.428488587  -2.022090054  -0.414398666
  H    1.651749884  -1.217110107   0.592753372
  H   -0.056047771  -1.227971715   1.102361630
  H    0.428488587   2.022090054  -0.414398666
  H    1.651749884   1.217110107   0.592753372
  H   -0.056047771   1.227971715   1.102361630
  C    0.615736194  -1.174162596   0.239956245
  O    0.383660470   0.000000000  -0.513369183
  C    0.615736194   1.174162596   0.239956245
