12
charge=0 charge_a=0 charge_b=0 selection_a=1-4 selection_b=5-12 scaling=0.95 benchmark_Eint=-4.159 benchmark_unit=kcal/mol group=NH-O
  N   -2.919078130  -0.005279467   0.000000000
  H   -2.102771897   0.598398113   0.000000000
  H   -3.473183159   0.230195710   0.813481220
  H   -3.473183159   0.230195710  -0.813481220
  H    2.220337614   1.063757744   0.000000000
  H   -0.906251734  -1.421365612   0.000000000
  H    0.574026217  -1.902616329   0.876460187
  H    0.574026217  -1.902616329  -0.876460187
  O   -0.052449159   1.014707829   0.000000000
  C    0.647875612   0.032688469   0.000000000
  O    1.997628978   0.122547691   0.000000000
  C    0.178391684  -1.390524522   0.000000000
