23
charge=0 charge_a=0 charge_b=0 selection_a=1-10 selection_b=11-23 scaling=0.85 benchmark_Eint=-3.738 benchmark_unit=kcal/mol group=NH-O
  H    3.599316195  -1.696269673   0.855904281
  H    5.183045160   0.410665519   0.228065770
  H    3.561389076   2.244517552  -0.939007943
  H    1.080409137   1.148117417  -0.949790847
  N    2.062752598  -0.493712651  -0.008643621
  C    3.346846845  -0.765940719   0.380551103
  C    4.126205207   0.317526558   0.050513890
  C    3.276154987   1.278558359  -0.561211552
  C    2.007952240   0.748177730  -0.583216275
  H    1.272007734  -1.107262198   0.105631486
  H   -0.147002050   0.409962928   1.567598242
  H   -3.665485820   2.264537081  -0.045089160
  H   -1.702837384   2.331123351   1.464081101
  H   -2.504500559  -1.650346389  -1.346431490
  H   -0.606987767  -2.480503949  -0.370449238
  H   -4.059291100   0.262347822  -1.448004655
  C   -2.986802428   1.425909229   0.001619256
  C   -1.884769106   1.461590690   0.848917418
  C   -1.007509949   0.388986841   0.915859289
  C   -1.237857715  -0.727837060   0.121947076
  C   -2.334372683  -0.776745529  -0.729819911
  C   -3.207085881   0.302925036  -0.784867744
  O   -0.336713999  -1.763555284   0.209768171
