13
charge=0 charge_a=0 charge_b=0 selection_a=1-10 selection_b=11-13 scaling=1.1 benchmark_Eint=-5.002 benchmark_unit=kcal/mol group=NH-O
  H   -0.144032927  -2.110062044   0.000000000
  H   -2.741193101  -1.335199737   0.000000000
  H   -2.711815606   1.376849172   0.000000000
  H   -0.099034831   2.095225891   0.000000000
  N    0.236244638  -0.011623017   0.000000000
  C   -0.564861312  -1.121070844   0.000000000
  C   -1.873768468  -0.698982201   0.000000000
  C   -1.858424856   0.721903880   0.000000000
  C   -0.540603073   1.115225009   0.000000000
  H    1.245325223  -0.021502797   0.000000000
  O    3.429701449  -0.028911786   0.000000000
  H    3.961064738   0.199809630  -0.766541020
  H    3.961064738   0.199809630   0.766541020
