11
charge=0 charge_a=0 charge_b=0 selection_a=1-4 selection_b=5-11 scaling=1.1 benchmark_Eint=-3.792 benchmark_unit=kcal/mol group=NH-O
  N   -2.378616155  -0.173103490   0.000000000
  H   -1.607872674   0.487848479   0.000000000
  H   -2.948252456   0.023192728   0.813288088
  H   -2.948252456   0.023192728  -0.813288088
  H    1.636240039  -1.632775029  -0.874267493
  H    1.636240039  -1.632775029   0.874267493
  H    0.105975191  -1.313861323   0.000000000
  H    2.612160308   0.527030026   0.000000000
  C    1.181998296  -1.159913676   0.000000000
  C    1.527709751   0.296430305   0.000000000
  O    0.728336618   1.199538601   0.000000000
