17
charge=0 charge_a=0 charge_b=0 selection_a=1-10 selection_b=11-17 scaling=0.95 benchmark_Eint=-5.089 benchmark_unit=kcal/mol group=NH-O
  H   -0.947099162  -1.778478402   0.000000000
  H   -3.662321536  -1.833750014   0.000000000
  H   -4.458989775   0.759045901   0.000000000
  H   -2.188300949   2.238330146   0.000000000
  N   -1.230136609   0.331689749   0.000000000
  C   -1.653957034  -0.969442419   0.000000000
  C   -3.029056276  -0.964124174   0.000000000
  C   -3.446839606   0.394563405   0.000000000
  C   -2.311631049   1.170635700   0.000000000
  H   -0.265474180   0.619582096   0.000000000
  H    4.103804984   0.629400104  -0.887177991
  H    4.237481325  -0.929581088   0.000000000
  H    4.103804984   0.629400104   0.887177991
  C    3.824458966   0.070165497   0.000000000
  N    2.333518541  -0.038034815   0.000000000
  O    1.709401110   1.013124090   0.000000000
  O    1.837327627  -1.146406636   0.000000000
