12
charge=0 charge_a=0 charge_b=0 selection_a=1-4 selection_b=5-12 scaling=1.25 benchmark_Eint=-3.166 benchmark_unit=kcal/mol group=NH-O
  N   -2.919078130  -0.005279467   0.000000000
  H   -2.102771897   0.598398113   0.000000000
  H   -3.473183159   0.230195710   0.813481220
  H   -3.473183159   0.230195710  -0.813481220
  H    2.867807952   1.195223970   0.000000000
  H   -0.258781396  -1.289899386   0.000000000
  H    1.221496555  -1.771150102   0.876460187
  H    1.221496555  -1.771150102  -0.876460187
  O    0.595021179   1.146174056   0.000000000
  C    1.295345950   0.164154696   0.000000000
  O    2.645099316   0.254013918   0.000000000
  C    0.825862022  -1.259058296   0.000000000
