23
charge=0 charge_a=0 charge_b=0 selection_a=1-10 selection_b=11-23 scaling=1.05 benchmark_Eint=-5.367 benchmark_unit=kcal/mol group=NH-O
  H    3.599316195  -1.696269673   0.855904281
  H    5.183045160   0.410665519   0.228065770
  H    3.561389076   2.244517552  -0.939007943
  H    1.080409137   1.148117417  -0.949790847
  N    2.062752598  -0.493712651  -0.008643621
  C    3.346846845  -0.765940719   0.380551103
  C    4.126205207   0.317526558   0.050513890
  C    3.276154987   1.278558359  -0.561211552
  C    2.007952240   0.748177730  -0.583216275
  H    1.272007734  -1.107262198   0.105631486
  H   -0.525524811   0.255541025   1.592100991
  H   -4.044008581   2.110115178  -0.020586411
  H   -2.081360145   2.176701448   1.488583850
  H   -2.883023320  -1.804768292  -1.321928741
  H   -0.985510528  -2.634925852  -0.345946489
  H   -4.437813861   0.107925919  -1.423501906
  C   -3.365325189   1.271487326   0.026122005
  C   -2.263291867   1.307168787   0.873420167
  C   -1.386032710   0.234564938   0.940362038
  C   -1.616380476  -0.882258963   0.146449825
  C   -2.712895444  -0.931167432  -0.705317162
  C   -3.585608642   0.148503133  -0.760364995
  O   -0.715236760  -1.917977187   0.234270920
