13
charge=0 charge_a=0 charge_b=0 selection_a=1-4 selection_b=5-13 scaling=1.5 benchmark_Eint=-1.332 benchmark_unit=kcal/mol group=NH-O
  N   -2.346918027   0.000000000   0.094855168
  H   -1.480809280   0.000000000  -0.434408038
  H   -2.878195419  -0.813163079  -0.189038305
  H   -2.878195419   0.813163079  -0.189038305
  H    1.854259573  -2.022090054  -0.474780718
  H    3.077520870  -1.217110107   0.532371320
  H    1.369723215  -1.227971715   1.041979578
  H    1.854259573   2.022090054  -0.474780718
  H    3.077520870   1.217110107   0.532371320
  H    1.369723215   1.227971715   1.041979578
  C    2.041507180  -1.174162596   0.179574192
  O    1.809431456   0.000000000  -0.573751236
  C    2.041507180   1.174162596   0.179574192
