13
charge=0 charge_a=0 charge_b=0 selection_a=1-4 selection_b=5-13 scaling=0.95 benchmark_Eint=-3.474 benchmark_unit=kcal/mol group=NH-O
  N   -2.346918027   0.000000000   0.094855168
  H   -1.480809280   0.000000000  -0.434408038
  H   -2.878195419  -0.813163079  -0.189038305
  H   -2.878195419   0.813163079  -0.189038305
  H    0.647837970  -2.022090054  -0.423688213
  H    1.871099267  -1.217110107   0.583463825
  H    0.163301612  -1.227971715   1.093072083
  H    0.647837970   2.022090054  -0.423688213
  H    1.871099267   1.217110107   0.583463825
  H    0.163301612   1.227971715   1.093072083
  C    0.835085577  -1.174162596   0.230666698
  O    0.603009853   0.000000000  -0.522658730
  C    0.835085577   1.174162596   0.230666698
