11
charge=0 charge_a=0 charge_b=0 selection_a=1-4 selection_b=5-11 scaling=1.5 benchmark_Eint=-1.789 benchmark_unit=kcal/mol group=NH-O
  N   -2.378616155  -0.173103490   0.000000000
  H   -1.607872674   0.487848479   0.000000000
  H   -2.948252456   0.023192728   0.813288088
  H   -2.948252456   0.023192728  -0.813288088
  H    2.485770690  -1.373978621  -0.874267493
  H    2.485770690  -1.373978621   0.874267493
  H    0.955505842  -1.055064915   0.000000000
  H    3.461690960   0.785826434   0.000000000
  C    2.031528948  -0.901117268   0.000000000
  C    2.377240402   0.555226713   0.000000000
  O    1.577867270   1.458335009   0.000000000
