12
charge=0 charge_a=0 charge_b=0 selection_a=1-4 selection_b=5-12 scaling=1.1 benchmark_Eint=-4.031 benchmark_unit=kcal/mol group=NH-O
  N   -2.919078130  -0.005279467   0.000000000
  H   -2.102771897   0.598398113   0.000000000
  H   -3.473183159   0.230195710   0.813481220
  H   -3.473183159   0.230195710  -0.813481220
  H    2.544072783   1.129490857   0.000000000
  H   -0.582516565  -1.355632499   0.000000000
  H    0.897761386  -1.836883216   0.876460187
  H    0.897761386  -1.836883216  -0.876460187
  O    0.271286010   1.080440942   0.000000000
  C    0.971610781   0.098421582   0.000000000
  O    2.321364147   0.188280804   0.000000000
  C    0.502126853  -1.324791409   0.000000000
