13
charge=0 charge_a=0 charge_b=0 selection_a=1-4 selection_b=5-13 scaling=0.8 benchmark_Eint=-0.647 benchmark_unit=kcal/mol group=NH-O
  N   -2.346918027   0.000000000   0.094855168
  H   -1.480809280   0.000000000  -0.434408038
  H   -2.878195419  -0.813163079  -0.189038305
  H   -2.878195419   0.813163079  -0.189038305
  H    0.318813896  -2.022090054  -0.409753893
  H    1.542075193  -1.217110107   0.597398145
  H   -0.165722462  -1.227971715   1.107006403
  H    0.318813896   2.022090054  -0.409753893
  H    1.542075193   1.217110107   0.597398145
  H   -0.165722462   1.227971715   1.107006403
  C    0.506061503  -1.174162596   0.244601018
  O    0.273985779   0.000000000  -0.508724410
  C    0.506061503   1.174162596   0.244601018
