12
charge=0 charge_a=0 charge_b=0 selection_a=1-4 selection_b=5-12 scaling=2.0 benchmark_Eint=-0.685 benchmark_unit=kcal/mol group=NH-O
  N   -2.919078130  -0.005279467   0.000000000
  H   -2.102771897   0.598398113   0.000000000
  H   -3.473183159   0.230195710   0.813481220
  H   -3.473183159   0.230195710  -0.813481220
  H    4.486483798   1.523889536   0.000000000
  H    1.359894450  -0.961233820   0.000000000
  H    2.840172401  -1.442484537   0.876460187
  H    2.840172401  -1.442484537  -0.876460187
  O    2.213697025   1.474839621   0.000000000
  C    2.914021796   0.492820261   0.000000000
  O    4.263775162   0.582679483   0.000000000
  C    2.444537868  -0.930392730   0.000000000
