22
charge=0 charge_a=0 charge_b=0 selection_a=1-10 selection_b=11-22 scaling=1.1 benchmark_Eint=-8.613 benchmark_unit=kcal/mol group=NH-O
  H    1.723540500   0.439220656  -2.100794984
  H    4.183896156  -0.425803792  -1.356244732
  H    4.183896156  -0.425803792   1.356244732
  H    1.723540500   0.439220656   2.100794984
  N    1.387995065   0.559671848   0.000000000
  C    2.129546398   0.291117564  -1.116441476
  C    3.370215255  -0.146393270  -0.710246035
  C    3.370215255  -0.146393270   0.710246035
  C    2.129546398   0.291117564   1.116441476
  H    0.408915015   0.824469584   0.000000000
  C   -4.049313804   0.847605240  -0.000000000
  H   -4.166013646   1.480565903   0.877607624
  H   -4.166013646   1.480565903  -0.877607624
  H   -4.829394994   0.089088197  -0.000000000
  C   -2.650452246   0.275823948  -0.000000000
  O   -1.666203476   1.006879254  -0.000000000
  N   -2.551117572  -1.070355474  -0.000000000
  H   -3.394010792  -1.613585867  -0.000000000
  C   -1.271267884  -1.760521181  -0.000000000
  H   -0.685508730  -1.498874186  -0.878901520
  H   -1.453921170  -2.830992942  -0.000000000
  H   -0.685508730  -1.498874186   0.878901520
