13
charge=0 charge_a=0 charge_b=0 selection_a=1-4 selection_b=5-13 scaling=1.05 benchmark_Eint=-4.892 benchmark_unit=kcal/mol group=NH-O
  N    2.826717292  -0.007311558   0.229118221
  H    2.006428970  -0.536734886  -0.055669142
  H    3.278900934  -0.523725249   0.972873417
  H    3.468618440   0.003837290  -0.553363664
  H   -2.765959741   0.502525770   0.548507762
  H   -2.519032696  -1.201419919   0.373587724
  H   -0.397128464   1.639461846  -1.239144114
  H    0.603062583   1.424620735   0.190732236
  H   -1.060850092   2.051910227   0.347961405
  O   -0.154932668  -1.020538780  -0.363894823
  C   -0.877609457  -0.077813589  -0.085949609
  N   -2.163459493  -0.263332777   0.315789470
  C   -0.415018176   1.357579741  -0.186088671
