13
charge=0 charge_a=0 charge_b=0 selection_a=1-4 selection_b=5-13 scaling=1.0 benchmark_Eint=-4.973 benchmark_unit=kcal/mol group=NH-O
  N    2.826717292  -0.007311558   0.229118221
  H    2.006428970  -0.536734886  -0.055669142
  H    3.278900934  -0.523725249   0.972873417
  H    3.468618440   0.003837290  -0.553363664
  H   -2.663037758   0.525564051   0.563185175
  H   -2.416110713  -1.178381638   0.388265137
  H   -0.294206481   1.662500127  -1.224466701
  H    0.705984566   1.447659016   0.205409649
  H   -0.957928109   2.074948508   0.362638818
  O   -0.052010685  -0.997500499  -0.349217410
  C   -0.774687474  -0.054775308  -0.071272196
  N   -2.060537510  -0.240294496   0.330466883
  C   -0.312096193   1.380618022  -0.171411258
