23
charge=0 charge_a=0 charge_b=0 selection_a=1-10 selection_b=11-23 scaling=1.5 benchmark_Eint=-2.479 benchmark_unit=kcal/mol group=NH-O
  H    3.599316195  -1.696269673   0.855904281
  H    5.183045160   0.410665519   0.228065770
  H    3.561389076   2.244517552  -0.939007943
  H    1.080409137   1.148117417  -0.949790847
  N    2.062752598  -0.493712651  -0.008643621
  C    3.346846845  -0.765940719   0.380551103
  C    4.126205207   0.317526558   0.050513890
  C    3.276154987   1.278558359  -0.561211552
  C    2.007952240   0.748177730  -0.583216275
  H    1.272007734  -1.107262198   0.105631486
  H   -1.377201023  -0.091908256   1.647232178
  H   -4.895684793   1.762665898   0.034544776
  H   -2.933036357   1.829252168   1.543715036
  H   -3.734699532  -2.152217572  -1.266797554
  H   -1.837186740  -2.982375132  -0.290815302
  H   -5.289490073  -0.239523362  -1.368370720
  C   -4.217001401   0.924038046   0.081253192
  C   -3.114968079   0.959719506   0.928551354
  C   -2.237708922  -0.112884342   0.995493224
  C   -2.468056688  -1.229708244   0.201581012
  C   -3.564571656  -1.278616712  -0.650185976
  C   -4.437284854  -0.198946148  -0.705233808
  O   -1.566912972  -2.265426468   0.289402106
