16
charge=0 charge_a=0 charge_b=0 selection_a=1-4 selection_b=5-16 scaling=1.5 benchmark_Eint=-2.166 benchmark_unit=kcal/mol group=NH-O
  N    3.219629555  -0.632154438   0.639868370
  H    2.474939535  -0.928226606   0.016905524
  H    3.308037962  -1.335631672   1.362189912
  H    4.081883341  -0.644978177   0.109847531
  H   -3.258405274   0.255770838   1.159724981
  H   -3.927404918   0.758735462  -0.407760008
  H   -4.401961030  -0.805573035   0.299791433
  H    0.021763042   1.821879023  -1.716282985
  H    0.665898052   1.357079256  -0.124720435
  H   -0.360213968   2.816728406  -0.284487703
  O   -2.550712898  -0.807175038  -0.490500010
  C   -1.400918752  -0.193494392  -0.779728260
  O   -0.503849212  -0.759892982  -1.345430293
  O   -1.386792280   1.081297703  -0.375510266
  C   -0.172183236   1.811856979  -0.646527291
  C   -3.594957892  -0.089818333   0.185302015
