12
charge=0 charge_a=0 charge_b=0 selection_a=1-4 selection_b=5-12 scaling=1.5 benchmark_Eint=-1.878 benchmark_unit=kcal/mol group=NH-O
  N   -2.919078130  -0.005279467   0.000000000
  H   -2.102771897   0.598398113   0.000000000
  H   -3.473183159   0.230195710   0.813481220
  H   -3.473183159   0.230195710  -0.813481220
  H    3.407366568   1.304779159   0.000000000
  H    0.280777220  -1.180344197   0.000000000
  H    1.761055170  -1.661594914   0.876460187
  H    1.761055170  -1.661594914  -0.876460187
  O    1.134579794   1.255729244   0.000000000
  C    1.834904566   0.273709884   0.000000000
  O    3.184657932   0.363569106   0.000000000
  C    1.365420638  -1.149503107   0.000000000
