14
charge=0 charge_a=0 charge_b=0 selection_a=1-4 selection_b=5-14 scaling=1.0 benchmark_Eint=-3.309 benchmark_unit=kcal/mol group=NH-O
  N    2.454007545  -0.788140322  -0.020291977
  H    1.621910139  -0.523699452   0.493955136
  H    3.026729220  -1.361070326   0.585585206
  H    2.148845184  -1.370909285  -0.789125544
  H   -2.457492809  -0.760551454   0.663679503
  H   -1.972787528  -1.888899197  -0.632091488
  H   -1.010910747  -1.791081186   0.864871614
  H    0.504541522   2.429124259   0.634671330
  H   -0.701623940   2.273623724  -0.673280039
  H    0.926363428   1.540910724  -0.848171510
  C   -1.612641465  -1.224131743   0.151381558
  O   -0.832853373  -0.261994991  -0.523674139
  O   -0.327819211   0.624276474   0.523869044
  C    0.121911147   1.782556786  -0.153160878
