16
charge=0 charge_a=0 charge_b=0 selection_a=1-4 selection_b=5-16 scaling=0.8 benchmark_Eint=-1.614 benchmark_unit=kcal/mol group=NH-O
  N    2.915424005  -0.636720099  -0.327762382
  H    2.019642277  -0.869421399   0.093291787
  H    3.616017416  -0.692728013   0.400758561
  H    3.132764480  -1.362718184  -0.998735687
  C   -1.799033036  -0.889109341  -0.441833287
  H   -2.278603577  -1.305087281   0.442256785
  H   -2.483957660  -0.195666966  -0.926235710
  H   -1.589152789  -1.714494896  -1.119494641
  C   -0.487066713  -0.257372434  -0.028119266
  O    0.388185167  -0.907439682   0.527014338
  N   -0.345116607   1.058539675  -0.306082052
  H   -1.103045507   1.541334786  -0.750531004
  C    0.852401987   1.803783325   0.050862863
  H    1.735120568   1.369643093  -0.414487802
  H    1.000186679   1.797774127   1.130648218
  H    0.732775664   2.830502577  -0.284071303
