16
charge=0 charge_a=0 charge_b=0 selection_a=1-4 selection_b=5-16 scaling=2.0 benchmark_Eint=-0.952 benchmark_unit=kcal/mol group=NH-O
  N    2.915424005  -0.636720099  -0.327762382
  H    2.019642277  -0.869421399   0.093291787
  H    3.616017416  -0.692728013   0.400758561
  H    3.132764480  -1.362718184  -0.998735687
  C   -4.246218702  -0.946136766   0.208750540
  H   -4.725789243  -1.362114706   1.092840612
  H   -4.931143326  -0.252694391  -0.275651883
  H   -4.036338455  -1.771522321  -0.468910814
  C   -2.934252379  -0.314399859   0.622464561
  O   -2.059000499  -0.964467107   1.177598165
  N   -2.792302273   1.001512250   0.344501775
  H   -3.550231173   1.484307361  -0.099947177
  C   -1.594783679   1.746755900   0.701446690
  H   -0.712065098   1.312615668   0.236096025
  H   -1.446998987   1.740746702   1.781232045
  H   -1.714410002   2.773475152   0.366512524
