23
charge=0 charge_a=0 charge_b=0 selection_a=1-14 selection_b=15-23 scaling=0.9 benchmark_Eint=-8.166 benchmark_unit=kcal/mol group=NH-O
  H   -0.216066270  -0.151666017   1.745528831
  H   -3.619186812  -2.075222720  -0.022083792
  H   -1.780163500  -2.051069111   1.642572607
  H   -2.284460603   1.718464769  -1.503314307
  H    0.685785211   1.747024828   0.518913606
  H   -3.856679599  -0.164649449  -1.585682132
  H   -0.244708113   2.597345688  -0.596294551
  C   -2.926733377  -1.247533984   0.016980284
  C   -1.893523904  -1.231204647   0.946381621
  C   -1.002799623  -0.167962124   1.004044572
  C   -1.124038317   0.914324280   0.117776245
  C   -2.171652865   0.891787186  -0.813940389
  C   -3.057346171  -0.172807086  -0.857365380
  N   -0.247352944   1.979870338   0.197625798
  H    1.792850061  -1.706362562  -1.212018738
  H    0.588227717  -0.751719865  -0.416622155
  H    4.037259278  -1.308003224  -1.136678765
  H    4.450259185   0.388329512  -0.814661406
  H    4.447325312  -0.771377223   0.502833617
  O    2.250208470   0.824754495   0.621157369
  C    2.513869601  -0.126794913  -0.100707939
  N    1.557561193  -0.907970435  -0.654109994
  C    3.946214043  -0.492313951  -0.422651702
