22
charge=0 charge_a=0 charge_b=0 selection_a=1-14 selection_b=15-22 scaling=0.95 benchmark_Eint=-6.370 benchmark_unit=kcal/mol group=NH-O
  H   -0.042307224  -0.087113349   1.862837475
  H    2.842599627   2.450894172  -0.038430499
  H    1.078011144   2.094260338   1.667648144
  H    2.334788147  -1.593242177  -1.360446764
  H   -0.565235797  -2.151659950   0.630246460
  H    3.470566237   0.577971069  -1.537360930
  H    0.548108718  -2.843774494  -0.401802400
  C    2.348493485   1.494342212   0.045384150
  C    1.357391477   1.290722773   1.000206031
  C    0.720855045   0.064943289   1.112741241
  C    1.053375191  -0.991313754   0.255191254
  C    2.060830375  -0.785933793  -0.693477078
  C    2.698367865   0.441883246  -0.792806579
  N    0.409038568  -2.217027447   0.373249942
  H   -3.250110518   1.018164905   1.018432950
  H   -1.107202440  -0.673992838  -1.886670227
  H   -0.591798799   0.919695977  -1.309836236
  H   -2.077762173   0.781470770  -2.246604104
  O   -2.319468212  -0.955656387   0.375132792
  C   -2.213284870   0.079173217  -0.236335441
  O   -2.793749070   1.221296375   0.190314265
  C   -1.451642846   0.281721808  -1.510000122
