22
charge=0 charge_a=0 charge_b=0 selection_a=1-14 selection_b=15-22 scaling=0.9 benchmark_Eint=-5.825 benchmark_unit=kcal/mol group=NH-O
  H   -0.042307224  -0.087113349   1.862837475
  H    2.842599627   2.450894172  -0.038430499
  H    1.078011144   2.094260338   1.667648144
  H    2.334788147  -1.593242177  -1.360446764
  H   -0.565235797  -2.151659950   0.630246460
  H    3.470566237   0.577971069  -1.537360930
  H    0.548108718  -2.843774494  -0.401802400
  C    2.348493485   1.494342212   0.045384150
  C    1.357391477   1.290722773   1.000206031
  C    0.720855045   0.064943289   1.112741241
  C    1.053375191  -0.991313754   0.255191254
  C    2.060830375  -0.785933793  -0.693477078
  C    2.698367865   0.441883246  -0.792806579
  N    0.409038568  -2.217027447   0.373249942
  H   -3.157782496   0.955217349   1.031859985
  H   -1.014874418  -0.736940394  -1.873243192
  H   -0.499470777   0.856748421  -1.296409201
  H   -1.985434151   0.718523214  -2.233177069
  O   -2.227140190  -1.018603943   0.388559827
  C   -2.120956848   0.016225661  -0.222908406
  O   -2.701421048   1.158348819   0.203741300
  C   -1.359314824   0.218774252  -1.496573087
