15
charge=0 charge_a=0 charge_b=0 selection_a=1-4 selection_b=5-15 scaling=0.95 benchmark_Eint=-4.031 benchmark_unit=kcal/mol group=NH-O
  N    2.996085791  -0.555457000   0.324906636
  H    2.141921207  -0.853106611  -0.135212830
  H    3.237976922  -1.265300107   1.004574238
  H    3.731035625  -0.551389813  -0.371000210
  H    1.335368479   1.297735174   0.366713501
  H    0.297405134   2.744057936   0.180702129
  H    0.607242527   1.667505381  -1.207918554
  H   -2.083971625  -1.966034871   0.094493854
  C   -0.773069436  -0.296228464  -0.065059669
  O   -0.730732040   1.006816455   0.244154722
  C    0.465332888   1.718892594  -0.130509153
  C   -2.068811895  -0.919008043   0.376161469
  O    0.120792780  -0.882322692  -0.626758041
  H   -2.174965102  -0.822781959   1.455825623
  H   -2.907839584  -0.396563074  -0.080592146
