23
charge=0 charge_a=0 charge_b=0 selection_a=1-14 selection_b=15-23 scaling=0.95 benchmark_Eint=-8.900 benchmark_unit=kcal/mol group=NH-O
  H   -0.216066270  -0.151666017   1.745528831
  H   -3.619186812  -2.075222720  -0.022083792
  H   -1.780163500  -2.051069111   1.642572607
  H   -2.284460603   1.718464769  -1.503314307
  H    0.685785211   1.747024828   0.518913606
  H   -3.856679599  -0.164649449  -1.585682132
  H   -0.244708113   2.597345688  -0.596294551
  C   -2.926733377  -1.247533984   0.016980284
  C   -1.893523904  -1.231204647   0.946381621
  C   -1.002799623  -0.167962124   1.004044572
  C   -1.124038317   0.914324280   0.117776245
  C   -2.171652865   0.891787186  -0.813940389
  C   -3.057346171  -0.172807086  -0.857365380
  N   -0.247352944   1.979870338   0.197625798
  H    1.879762465  -1.757599802  -1.206338529
  H    0.675140121  -0.802957105  -0.410941946
  H    4.124171682  -1.359240464  -1.130998556
  H    4.537171589   0.337092272  -0.808981197
  H    4.534237716  -0.822614463   0.508513826
  O    2.337120874   0.773517255   0.626837578
  C    2.600782005  -0.178032153  -0.095027730
  N    1.644473597  -0.959207675  -0.648429785
  C    4.033126447  -0.543551191  -0.416971493
