10
charge=0 charge_a=0 charge_b=0 selection_a=1-4 selection_b=5-10 scaling=0.85 benchmark_Eint=-1.671 benchmark_unit=kcal/mol group=NH-O
  N   -2.487845063  -0.124884945   0.000000000
  H   -3.063569341   0.049874018  -0.813971853
  H   -1.743326745   0.563239379   0.000000000
  H   -3.063569341   0.049874018   0.813971853
  H   -0.532040827  -1.284705740   0.000000000
  H    0.985391417  -1.739311424  -0.875970984
  H    0.985391417  -1.739311424   0.875970984
  C    0.556088051  -1.249651484   0.000000000
  N    1.081109014   0.129520288   0.000000000
  O    0.235971897   0.983557282   0.000000000
