24
charge=0 charge_a=0 charge_b=0 selection_a=1-14 selection_b=15-24 scaling=1.05 benchmark_Eint=-7.144 benchmark_unit=kcal/mol group=NH-O
  H   -0.091281120   0.008918050   1.914192261
  H    2.772152837   2.392304915  -0.207622505
  H    1.061474768   2.154981071   1.572747058
  H    2.157416724  -1.705936061  -1.297132911
  H   -0.684294008  -2.110083410   0.812083831
  H    3.320811644   0.432474402  -1.624859121
  H    0.376922697  -2.867625811  -0.225038828
  C    2.264798640   1.450722589  -0.058580710
  C    1.303001855   1.314067601   0.936911840
  C    0.649825069   0.107545418   1.133879595
  C    0.938010968  -0.998076780   0.323730574
  C    1.918337803  -0.860176779  -0.665487419
  C    2.570963535   0.349198066  -0.850315447
  N    0.279342647  -2.203853076   0.525223627
  H   -2.331921660   0.729200390  -2.376726560
  H   -1.628160931  -0.857420337  -1.969562338
  H   -0.734850747   0.643853151  -1.647756150
  H   -2.955476293   1.601501824   1.270088845
  H   -3.364333564   2.130728554  -0.377850430
  C   -1.721329382   0.178632505  -1.659680336
  C   -2.326992857   0.262204651  -0.281026107
  O   -2.576530147  -0.727284202   0.373555661
  C   -2.606464743   1.649398494   0.243156031
  H   -1.705091401   2.259033506   0.181177491
