24
charge=0 charge_a=0 charge_b=0 selection_a=1-14 selection_b=15-24 scaling=1.5 benchmark_Eint=-3.253 benchmark_unit=kcal/mol group=NH-O
  H   -0.091281120   0.008918050   1.914192261
  H    2.772152837   2.392304915  -0.207622505
  H    1.061474768   2.154981071   1.572747058
  H    2.157416724  -1.705936061  -1.297132911
  H   -0.684294008  -2.110083410   0.812083831
  H    3.320811644   0.432474402  -1.624859121
  H    0.376922697  -2.867625811  -0.225038828
  C    2.264798640   1.450722589  -0.058580710
  C    1.303001855   1.314067601   0.936911840
  C    0.649825069   0.107545418   1.133879595
  C    0.938010968  -0.998076780   0.323730574
  C    1.918337803  -0.860176779  -0.665487419
  C    2.570963535   0.349198066  -0.850315447
  N    0.279342647  -2.203853076   0.525223627
  H   -3.142880005   1.321828622  -2.564667204
  H   -2.439119276  -0.264792104  -2.157502982
  H   -1.545809092   1.236481384  -1.835696794
  H   -3.766434638   2.194130056   1.082148201
  H   -4.175291909   2.723356786  -0.565791074
  C   -2.532287727   0.771260738  -1.847620980
  C   -3.137951202   0.854832884  -0.468966751
  O   -3.387488492  -0.134655970   0.185615017
  C   -3.417423088   2.242026726   0.055215387
  H   -2.516049746   2.851661738  -0.006763153
