23
charge=0 charge_a=0 charge_b=0 selection_a=1-14 selection_b=15-23 scaling=2.0 benchmark_Eint=-1.853 benchmark_unit=kcal/mol group=NH-O
  H   -0.216066270  -0.151666017   1.745528831
  H   -3.619186812  -2.075222720  -0.022083792
  H   -1.780163500  -2.051069111   1.642572607
  H   -2.284460603   1.718464769  -1.503314307
  H    0.685785211   1.747024828   0.518913606
  H   -3.856679599  -0.164649449  -1.585682132
  H   -0.244708113   2.597345688  -0.596294551
  C   -2.926733377  -1.247533984   0.016980284
  C   -1.893523904  -1.231204647   0.946381621
  C   -1.002799623  -0.167962124   1.004044572
  C   -1.124038317   0.914324280   0.117776245
  C   -2.171652865   0.891787186  -0.813940389
  C   -3.057346171  -0.172807086  -0.857365380
  N   -0.247352944   1.979870338   0.197625798
  H    3.704922934  -2.833581857  -1.087054139
  H    2.500300590  -1.878939160  -0.291657556
  H    5.949332151  -2.435222519  -1.011714166
  H    6.362332058  -0.738889783  -0.689696807
  H    6.359398185  -1.898596518   0.627798216
  O    4.162281343  -0.302464800   0.746121968
  C    4.425942474  -1.254014208   0.024256660
  N    3.469634066  -2.035189730  -0.529145395
  C    5.858286916  -1.619533246  -0.297687103
