13
charge=0 charge_a=0 charge_b=0 selection_a=1-4 selection_b=5-13 scaling=2.0 benchmark_Eint=-0.335 benchmark_unit=kcal/mol group=NH-O
  N    3.274016695   0.059214175   0.000000000
  H    3.852544280  -0.101967192   0.814538171
  H    3.852544280  -0.101967192  -0.814538171
  H    2.547351328  -0.646626499   0.000000000
  H   -4.084263690   2.183818175   0.000000000
  H   -5.522296184  -0.145324887   0.000000000
  H   -1.461765470   1.359566263   0.000000000
  H   -3.625494861  -2.114756169   0.000000000
  C   -4.452364254  -0.038981325   0.000000000
  C   -3.698921112   1.180115028   0.000000000
  C   -2.392701655   0.823394583   0.000000000
  O   -2.280640116  -0.537113033   0.000000000
  C   -3.545369176  -1.044064210   0.000000000
