23
charge=0 charge_a=0 charge_b=0 selection_a=1-14 selection_b=15-23 scaling=0.85 benchmark_Eint=-6.664 benchmark_unit=kcal/mol group=NH-O
  H   -0.216066270  -0.151666017   1.745528831
  H   -3.619186812  -2.075222720  -0.022083792
  H   -1.780163500  -2.051069111   1.642572607
  H   -2.284460603   1.718464769  -1.503314307
  H    0.685785211   1.747024828   0.518913606
  H   -3.856679599  -0.164649449  -1.585682132
  H   -0.244708113   2.597345688  -0.596294551
  C   -2.926733377  -1.247533984   0.016980284
  C   -1.893523904  -1.231204647   0.946381621
  C   -1.002799623  -0.167962124   1.004044572
  C   -1.124038317   0.914324280   0.117776245
  C   -2.171652865   0.891787186  -0.813940389
  C   -3.057346171  -0.172807086  -0.857365380
  N   -0.247352944   1.979870338   0.197625798
  H    1.705937658  -1.655125321  -1.217698947
  H    0.501315314  -0.700482624  -0.422302364
  H    3.950346875  -1.256765983  -1.142358974
  H    4.363346782   0.439566753  -0.820341615
  H    4.360412909  -0.720139982   0.497153408
  O    2.163296067   0.875991736   0.615477160
  C    2.426957198  -0.075557672  -0.106388148
  N    1.470648790  -0.856733194  -0.659790203
  C    3.859301640  -0.441076710  -0.428331911
