16
charge=0 charge_a=0 charge_b=0 selection_a=1-4 selection_b=5-16 scaling=1.0 benchmark_Eint=-4.981 benchmark_unit=kcal/mol group=NH-O
  N    2.915424005  -0.636720099  -0.327762382
  H    2.019642277  -0.869421399   0.093291787
  H    3.616017416  -0.692728013   0.400758561
  H    3.132764480  -1.362718184  -0.998735687
  C   -2.206897314  -0.898613912  -0.333402649
  H   -2.686467855  -1.314591852   0.550687423
  H   -2.891821938  -0.205171537  -0.817805072
  H   -1.997017067  -1.723999467  -1.011064003
  C   -0.894930991  -0.266877005   0.080311372
  O   -0.019679111  -0.916944253   0.635444976
  N   -0.752980885   1.049035104  -0.197651414
  H   -1.510909785   1.531830215  -0.642100366
  C    0.444537709   1.794278754   0.159293501
  H    1.327256290   1.360138522  -0.306057164
  H    0.592322401   1.788269556   1.239078856
  H    0.324911386   2.820998006  -0.175640665
