23
charge=0 charge_a=0 charge_b=0 selection_a=1-14 selection_b=15-23 scaling=0.8 benchmark_Eint=-4.048 benchmark_unit=kcal/mol group=NH-O
  H   -0.216066270  -0.151666017   1.745528831
  H   -3.619186812  -2.075222720  -0.022083792
  H   -1.780163500  -2.051069111   1.642572607
  H   -2.284460603   1.718464769  -1.503314307
  H    0.685785211   1.747024828   0.518913606
  H   -3.856679599  -0.164649449  -1.585682132
  H   -0.244708113   2.597345688  -0.596294551
  C   -2.926733377  -1.247533984   0.016980284
  C   -1.893523904  -1.231204647   0.946381621
  C   -1.002799623  -0.167962124   1.004044572
  C   -1.124038317   0.914324280   0.117776245
  C   -2.171652865   0.891787186  -0.813940389
  C   -3.057346171  -0.172807086  -0.857365380
  N   -0.247352944   1.979870338   0.197625798
  H    1.619025255  -1.603888080  -1.223379156
  H    0.414402911  -0.649245383  -0.427982573
  H    3.863434472  -1.205528742  -1.148039183
  H    4.276434379   0.490803994  -0.826021824
  H    4.273500506  -0.668902741   0.491473199
  O    2.076383664   0.927228977   0.609796951
  C    2.340044795  -0.024320431  -0.112068357
  N    1.383736387  -0.805495953  -0.665470412
  C    3.772389237  -0.389839469  -0.434012120
