14
charge=0 charge_a=0 charge_b=0 selection_a=1-4 selection_b=5-14 scaling=0.95 benchmark_Eint=-3.257 benchmark_unit=kcal/mol group=NH-O
  N    2.454007545  -0.788140322  -0.020291977
  H    1.621910139  -0.523699452   0.493955136
  H    3.026729220  -1.361070326   0.585585206
  H    2.148845184  -1.370909285  -0.789125544
  H   -2.360006342  -0.817950250   0.662183808
  H   -1.875301060  -1.946297993  -0.633587183
  H   -0.913424280  -1.848479982   0.863375919
  H    0.602027990   2.371725463   0.633175635
  H   -0.604137472   2.216224928  -0.674775734
  H    1.023849896   1.483511928  -0.849667205
  C   -1.515154998  -1.281530539   0.149885863
  O   -0.735366906  -0.319393787  -0.525169834
  O   -0.230332744   0.566877678   0.522373349
  C    0.219397614   1.725157990  -0.154656573
