14
charge=0 charge_a=0 charge_b=0 selection_a=1-4 selection_b=5-14 scaling=1.1 benchmark_Eint=-2.968 benchmark_unit=kcal/mol group=NH-O
  N    2.454007545  -0.788140322  -0.020291977
  H    1.621910139  -0.523699452   0.493955136
  H    3.026729220  -1.361070326   0.585585206
  H    2.148845184  -1.370909285  -0.789125544
  H   -2.652465744  -0.645753861   0.666670894
  H   -2.167760463  -1.774101604  -0.629100097
  H   -1.205883682  -1.676283593   0.867863005
  H    0.309568587   2.543921852   0.637662721
  H   -0.896596875   2.388421317  -0.670288648
  H    0.731390493   1.655708317  -0.845180119
  C   -1.807614400  -1.109334150   0.154372949
  O   -1.027826308  -0.147197398  -0.520682748
  O   -0.522792146   0.739074067   0.526860435
  C   -0.073061788   1.897354379  -0.150169487
