22
charge=0 charge_a=0 charge_b=0 selection_a=1-14 selection_b=15-22 scaling=1.25 benchmark_Eint=-4.800 benchmark_unit=kcal/mol group=NH-O
  H   -0.042307224  -0.087113349   1.862837475
  H    2.842599627   2.450894172  -0.038430499
  H    1.078011144   2.094260338   1.667648144
  H    2.334788147  -1.593242177  -1.360446764
  H   -0.565235797  -2.151659950   0.630246460
  H    3.470566237   0.577971069  -1.537360930
  H    0.548108718  -2.843774494  -0.401802400
  C    2.348493485   1.494342212   0.045384150
  C    1.357391477   1.290722773   1.000206031
  C    0.720855045   0.064943289   1.112741241
  C    1.053375191  -0.991313754   0.255191254
  C    2.060830375  -0.785933793  -0.693477078
  C    2.698367865   0.441883246  -0.792806579
  N    0.409038568  -2.217027447   0.373249942
  H   -3.804078649   1.395850241   0.937870739
  H   -1.661170571  -0.296307502  -1.967232438
  H   -1.145766930   1.297381313  -1.390398447
  H   -2.631730304   1.159156106  -2.327166315
  O   -2.873436343  -0.577971051   0.294570581
  C   -2.767253001   0.456858553  -0.316897652
  O   -3.347717201   1.598981711   0.109752054
  C   -2.005610977   0.659407144  -1.590562333
