23
charge=0 charge_a=0 charge_b=0 selection_a=1-14 selection_b=15-23 scaling=1.1 benchmark_Eint=-8.654 benchmark_unit=kcal/mol group=NH-O
  H   -0.216066270  -0.151666017   1.745528831
  H   -3.619186812  -2.075222720  -0.022083792
  H   -1.780163500  -2.051069111   1.642572607
  H   -2.284460603   1.718464769  -1.503314307
  H    0.685785211   1.747024828   0.518913606
  H   -3.856679599  -0.164649449  -1.585682132
  H   -0.244708113   2.597345688  -0.596294551
  C   -2.926733377  -1.247533984   0.016980284
  C   -1.893523904  -1.231204647   0.946381621
  C   -1.002799623  -0.167962124   1.004044572
  C   -1.124038317   0.914324280   0.117776245
  C   -2.171652865   0.891787186  -0.813940389
  C   -3.057346171  -0.172807086  -0.857365380
  N   -0.247352944   1.979870338   0.197625798
  H    2.140499675  -1.911311524  -1.189297902
  H    0.935877331  -0.956668827  -0.393901319
  H    4.384908892  -1.512952186  -1.113957929
  H    4.797908799   0.183380550  -0.791940570
  H    4.794974926  -0.976326185   0.525554453
  O    2.597858084   0.619805533   0.643878205
  C    2.861519215  -0.331743875  -0.077987103
  N    1.905210807  -1.112919397  -0.631389158
  C    4.293863657  -0.697262913  -0.399930866
