24
charge=0 charge_a=0 charge_b=0 selection_a=1-14 selection_b=15-24 scaling=0.8 benchmark_Eint=-2.648 benchmark_unit=kcal/mol group=NH-O
  H   -0.091281120   0.008918050   1.914192261
  H    2.772152837   2.392304915  -0.207622505
  H    1.061474768   2.154981071   1.572747058
  H    2.157416724  -1.705936061  -1.297132911
  H   -0.684294008  -2.110083410   0.812083831
  H    3.320811644   0.432474402  -1.624859121
  H    0.376922697  -2.867625811  -0.225038828
  C    2.264798640   1.450722589  -0.058580710
  C    1.303001855   1.314067601   0.936911840
  C    0.649825069   0.107545418   1.133879595
  C    0.938010968  -0.998076780   0.323730574
  C    1.918337803  -0.860176779  -0.665487419
  C    2.570963535   0.349198066  -0.850315447
  N    0.279342647  -2.203853076   0.525223627
  H   -1.881389246   0.399962484  -2.272315091
  H   -1.177628517  -1.186658243  -1.865150869
  H   -0.284318333   0.314615245  -1.543344681
  H   -2.504943879   1.272263918   1.374500314
  H   -2.913801150   1.801490648  -0.273438961
  C   -1.270796968  -0.150605401  -1.555268867
  C   -1.876460443  -0.067033255  -0.176614638
  O   -2.125997733  -1.056522108   0.477967130
  C   -2.155932329   1.320160588   0.347567500
  H   -1.254558987   1.929795600   0.285588960
