15
charge=0 charge_a=0 charge_b=0 selection_a=1-4 selection_b=5-15 scaling=0.9 benchmark_Eint=-3.593 benchmark_unit=kcal/mol group=NH-O
  N    2.996085791  -0.555457000   0.324906636
  H    2.141921207  -0.853106611  -0.135212830
  H    3.237976922  -1.265300107   1.004574238
  H    3.731035625  -0.551389813  -0.371000210
  H    1.441743660   1.299272863   0.392584301
  H    0.403780315   2.745595625   0.206572929
  H    0.713617708   1.669043070  -1.182047754
  H   -1.977596444  -1.964497182   0.120364654
  C   -0.666694255  -0.294690775  -0.039188869
  O   -0.624356859   1.008354144   0.270025522
  C    0.571708069   1.720430283  -0.104638353
  C   -1.962436714  -0.917470354   0.402032269
  O    0.227167961  -0.880785003  -0.600887241
  H   -2.068589921  -0.821244270   1.481696423
  H   -2.801464403  -0.395025385  -0.054721346
