23
charge=0 charge_a=0 charge_b=0 selection_a=1-14 selection_b=15-23 scaling=1.05 benchmark_Eint=-8.993 benchmark_unit=kcal/mol group=NH-O
  H   -0.216066270  -0.151666017   1.745528831
  H   -3.619186812  -2.075222720  -0.022083792
  H   -1.780163500  -2.051069111   1.642572607
  H   -2.284460603   1.718464769  -1.503314307
  H    0.685785211   1.747024828   0.518913606
  H   -3.856679599  -0.164649449  -1.585682132
  H   -0.244708113   2.597345688  -0.596294551
  C   -2.926733377  -1.247533984   0.016980284
  C   -1.893523904  -1.231204647   0.946381621
  C   -1.002799623  -0.167962124   1.004044572
  C   -1.124038317   0.914324280   0.117776245
  C   -2.171652865   0.891787186  -0.813940389
  C   -3.057346171  -0.172807086  -0.857365380
  N   -0.247352944   1.979870338   0.197625798
  H    2.053587271  -1.860074284  -1.194978111
  H    0.848964927  -0.905431587  -0.399581528
  H    4.297996488  -1.461714946  -1.119638138
  H    4.710996395   0.234617790  -0.797620779
  H    4.708062522  -0.925088945   0.519874244
  O    2.510945680   0.671042773   0.638197996
  C    2.774606811  -0.280506635  -0.083667312
  N    1.818298403  -1.061682157  -0.637069367
  C    4.206951253  -0.646025673  -0.405611075
