22
charge=0 charge_a=0 charge_b=0 selection_a=1-14 selection_b=15-22 scaling=2.0 benchmark_Eint=-1.091 benchmark_unit=kcal/mol group=NH-O
  H   -0.042307224  -0.087113349   1.862837475
  H    2.842599627   2.450894172  -0.038430499
  H    1.078011144   2.094260338   1.667648144
  H    2.334788147  -1.593242177  -1.360446764
  H   -0.565235797  -2.151659950   0.630246460
  H    3.470566237   0.577971069  -1.537360930
  H    0.548108718  -2.843774494  -0.401802400
  C    2.348493485   1.494342212   0.045384150
  C    1.357391477   1.290722773   1.000206031
  C    0.720855045   0.064943289   1.112741241
  C    1.053375191  -0.991313754   0.255191254
  C    2.060830375  -0.785933793  -0.693477078
  C    2.698367865   0.441883246  -0.792806579
  N    0.409038568  -2.217027447   0.373249942
  H   -5.188998977   2.340063580   0.736465212
  H   -3.046090899   0.647905837  -2.168637965
  H   -2.530687258   2.241594652  -1.591803974
  H   -4.016650632   2.103369445  -2.528571842
  O   -4.258356671   0.366242288   0.093165054
  C   -4.152173329   1.401071892  -0.518303179
  O   -4.732637529   2.543195050  -0.091653473
  C   -3.390531305   1.603620483  -1.791967860
