13
charge=0 charge_a=0 charge_b=0 selection_a=1-4 selection_b=5-13 scaling=1.05 benchmark_Eint=-2.993 benchmark_unit=kcal/mol group=NH-O
  N    3.274016695   0.059214175   0.000000000
  H    3.852544280  -0.101967192   0.814538171
  H    3.852544280  -0.101967192  -0.814538171
  H    2.547351328  -0.646626499   0.000000000
  H   -1.790967754   2.131799279   0.000000000
  H   -3.229000248  -0.197343783   0.000000000
  H    0.831530466   1.307547367   0.000000000
  H   -1.332198925  -2.166775065   0.000000000
  C   -2.159068318  -0.091000221   0.000000000
  C   -1.405625176   1.128096132   0.000000000
  C   -0.099405719   0.771375687   0.000000000
  O    0.012655820  -0.589131929   0.000000000
  C   -1.252073240  -1.096083106   0.000000000
