13
charge=0 charge_a=0 charge_b=0 selection_a=1-4 selection_b=5-13 scaling=1.25 benchmark_Eint=-2.021 benchmark_unit=kcal/mol group=NH-O
  N    3.274016695   0.059214175   0.000000000
  H    3.852544280  -0.101967192   0.814538171
  H    3.852544280  -0.101967192  -0.814538171
  H    2.547351328  -0.646626499   0.000000000
  H   -2.273766898   2.142750625   0.000000000
  H   -3.711799392  -0.186392437   0.000000000
  H    0.348731322   1.318498713   0.000000000
  H   -1.814998070  -2.155823719   0.000000000
  C   -2.641867462  -0.080048875   0.000000000
  C   -1.888424320   1.139047478   0.000000000
  C   -0.582204864   0.782327033   0.000000000
  O   -0.470143324  -0.578180583   0.000000000
  C   -1.734872384  -1.085131760   0.000000000
