14
charge=0 charge_a=0 charge_b=0 selection_a=1-4 selection_b=5-14 scaling=0.85 benchmark_Eint=-2.067 benchmark_unit=kcal/mol group=NH-O
  N    2.454007545  -0.788140322  -0.020291977
  H    1.621910139  -0.523699452   0.493955136
  H    3.026729220  -1.361070326   0.585585206
  H    2.148845184  -1.370909285  -0.789125544
  H   -2.165033406  -0.932747843   0.659192417
  H   -1.680328126  -2.061095586  -0.636578574
  H   -0.718451344  -1.963277575   0.860384528
  H    0.797000924   2.256927870   0.630184244
  H   -0.409164538   2.101427335  -0.677767125
  H    1.218822830   1.368714335  -0.852658596
  C   -1.320182062  -1.396328132   0.146894472
  O   -0.540393970  -0.434191380  -0.528161225
  O   -0.035359808   0.452080085   0.519381958
  C    0.414370550   1.610360397  -0.157647964
