21
charge=0 charge_a=0 charge_b=0 selection_a=1-14 selection_b=15-21 scaling=1.1 benchmark_Eint=-5.421 benchmark_unit=kcal/mol group=NH-O
  H   -0.292583670  -0.139246108   1.877098911
  H    2.754520722   2.232070414   0.015039075
  H    1.039617097   1.924635204   1.780747916
  H    1.781438320  -1.633720046  -1.556326418
  H   -1.037862865  -2.092457594   0.590060884
  H    3.115641217   0.426520574  -1.646084773
  H   -0.072436816  -2.780997715  -0.583711544
  C    2.168333910   1.326051686   0.056449133
  C    1.205243531   1.150445245   1.044098338
  C    0.451151911  -0.011310767   1.103243498
  C    0.642548119  -1.032377940   0.163728233
  C    1.617676205  -0.853375533  -0.824374796
  C    2.369142926   0.310972383  -0.872497740
  N   -0.097621838  -2.205425276   0.241343256
  H   -2.926855316   2.308994284  -1.423032836
  H   -1.456757334   2.292864085  -0.464484102
  H   -3.042769151   2.225420494   0.358349362
  H   -1.844461180   0.020917323  -1.462903818
  C   -2.476800688   1.906816640  -0.512635207
  C   -2.418711219   0.415123999  -0.603086796
  O   -2.936238374  -0.344726794   0.178195662
