21
charge=0 charge_a=0 charge_b=0 selection_a=1-14 selection_b=15-21 scaling=0.8 benchmark_Eint=-1.580 benchmark_unit=kcal/mol group=NH-O
  H   -0.292583670  -0.139246108   1.877098911
  H    2.754520722   2.232070414   0.015039075
  H    1.039617097   1.924635204   1.780747916
  H    1.781438320  -1.633720046  -1.556326418
  H   -1.037862865  -2.092457594   0.590060884
  H    3.115641217   0.426520574  -1.646084773
  H   -0.072436816  -2.780997715  -0.583711544
  C    2.168333910   1.326051686   0.056449133
  C    1.205243531   1.150445245   1.044098338
  C    0.451151911  -0.011310767   1.103243498
  C    0.642548119  -1.032377940   0.163728233
  C    1.617676205  -0.853375533  -0.824374796
  C    2.369142926   0.310972383  -0.872497740
  N   -0.097621838  -2.205425276   0.241343256
  H   -2.409116541   1.832340430  -1.310705957
  H   -0.939018559   1.816210231  -0.352157223
  H   -2.525030376   1.748766640   0.470676241
  H   -1.326722405  -0.455736531  -1.350576939
  C   -1.959061913   1.430162786  -0.400308328
  C   -1.900972444  -0.061529855  -0.490759917
  O   -2.418499599  -0.821380648   0.290522541
