25
charge=0 charge_a=0 charge_b=0 selection_a=1-14 selection_b=15-25 scaling=0.85 benchmark_Eint=-4.896 benchmark_unit=kcal/mol group=NH-O
  H   -0.018021151  -0.170916534   1.757251602
  H   -2.766074578  -2.650877567  -0.405223241
  H   -0.878483070  -2.404020164   1.184366839
  H   -2.900145455   1.608254426  -0.855628033
  H    0.118360947   2.150339376   0.949162782
  H   -3.779602699  -0.619516905  -1.402774418
  H   -1.179677053   2.874222077   0.195046719
  C   -2.385425549  -1.671444733  -0.156310785
  C   -1.326141629  -1.528860730   0.733946568
  C   -0.834539263  -0.274333836   1.056902670
  C   -1.384040149   0.876963698   0.478897816
  C   -2.459186070   0.728980678  -0.403970726
  C   -2.951359214  -0.530278894  -0.713407107
  N   -0.881030265   2.131018662   0.804628272
  H    2.287762262  -0.791914036   1.800117527
  H    3.332500255  -1.927134451   0.902923133
  H    3.746243249  -0.191609456   0.993597721
  H    0.487273998   1.502196887  -1.916618515
  C    1.618806974   0.449412193  -0.456825523
  O    2.194341956  -0.750651300  -0.277464577
  C    2.938501419  -0.917460866   0.937587297
  C    0.824014900   0.488951879  -1.728657821
  O    1.737915628   1.358674022   0.330020906
  H   -0.040720853  -0.165107459  -1.625250390
  H    1.422778831   0.126183666  -2.561650329
