26
charge=0 charge_a=0 charge_b=0 selection_a=1-14 selection_b=15-26 scaling=0.95 benchmark_Eint=-8.549 benchmark_unit=kcal/mol group=NH-O
  H   -0.158841472  -0.122032381   1.994745684
  H   -2.861075246  -2.581564826  -0.249341208
  H   -1.083339881  -2.340335673   1.463269069
  H   -2.745836012   1.650635612  -0.914178666
  H    0.127531577   2.153326073   1.144972252
  H   -3.691055259  -0.558878066  -1.421046737
  H   -1.020994919   2.877208187   0.186712849
  C   -2.448616415  -1.609774968  -0.022049839
  C   -1.451370258  -1.469993765   0.937326246
  C   -0.922460474  -0.224115836   1.236463397
  C   -1.372015135   0.921868151   0.567672135
  C   -2.382674225   0.776034938  -0.390358061
  C   -2.912372675  -0.472903828  -0.675648218
  N   -0.846871658   2.167418848   0.878925961
  H   -0.126266607  -0.875045249  -1.633898394
  H    1.370660689  -0.828144476  -2.605038173
  H    0.041682800   0.308256136  -2.950853842
  H    2.873290303  -2.398947045   0.868232583
  H    3.628059556  -0.807886685   1.173005068
  H    2.049802849  -1.188350713   1.888130789
  O    1.092920096   0.777696888  -1.298362775
  C    1.738605961   0.421627044  -0.193133075
  O    2.022381464   1.212662722   0.669715257
  O    2.038193776  -0.883560207  -0.166690282
  C    2.692793663  -1.341230749   1.024956473
  C    0.566794080  -0.236775857  -2.174599803
