17
charge=0 charge_a=0 charge_b=0 selection_a=1-10 selection_b=11-17 scaling=1.1 benchmark_Eint=-2.925 benchmark_unit=kcal/mol group=NH-O
  H    2.053541167  -1.948657171  -0.476072808
  H    0.663564668  -1.072843662  -1.125597059
  H    0.545973796  -1.918884875   0.433224657
  H    0.875530947   0.362595039   0.872020255
  H    2.784118695   1.591903154   0.305551325
  H    3.436151513   0.184494139  -0.530935485
  H    2.039106244   1.036806520  -1.205140735
  C    1.204768888  -1.322332735  -0.196651371
  N    1.671939076  -0.161999487   0.535580562
  C    2.514610993   0.706985029  -0.268404866
  H   -2.399455104  -1.552427883  -0.643094095
  H   -3.748745902  -0.692744376   0.071850288
  H   -2.280682947  -0.985655169   1.045992536
  H   -2.435669187   0.845879639  -1.456790190
  C   -2.658249350  -0.753234807   0.054240191
  C   -2.098192964   0.542936783  -0.445715981
  O   -1.335138947   1.243560434   0.168747674
