24
charge=0 charge_a=0 charge_b=0 selection_a=1-14 selection_b=15-24 scaling=1.1 benchmark_Eint=-5.249 benchmark_unit=kcal/mol group=NH-O
  H   -0.164508782  -0.610452712   1.465848174
  H   -4.130340566  -1.616704601   0.184757526
  H   -2.093522798  -2.135434256   1.501159644
  H   -2.272463199   1.985731157  -1.206231423
  H    0.892949901   1.261123557   0.358505613
  H   -4.197174703   0.460185770  -1.169020401
  H    0.044757637   2.311898476  -0.634304596
  C   -3.283138127  -0.947170922   0.168303692
  C   -2.139263344  -1.234316653   0.904916692
  C   -1.048619373  -0.378424218   0.888507753
  C   -1.077489877   0.796076248   0.125337290
  C   -2.231764930   1.080739308  -0.613870099
  C   -3.317098254   0.218377124  -0.589051467
  N   -0.002348280   1.673742573   0.141571963
  H    2.391170185  -2.321665662  -0.906769208
  H    2.151361805  -1.425649726  -2.432097993
  H    0.992994847  -1.222994420  -1.093402810
  H    3.836819724   0.218218670   2.078751687
  H    4.675208758  -0.715284824   0.807704011
  H    4.366617592   1.030547680   0.583440805
  C    2.039179351  -1.388553929  -1.349561496
  O    2.847941163  -0.296210990  -0.949164989
  O    2.693229697  -0.191279227   0.497953647
  C    3.980354409   0.101768485   1.005628736
