26
charge=0 charge_a=0 charge_b=0 selection_a=1-14 selection_b=15-26 scaling=1.0 benchmark_Eint=-8.408 benchmark_unit=kcal/mol group=NH-O
  H    0.055826485  -0.491986329   1.530194231
  H   -3.023874727  -2.470634208  -0.705545957
  H   -1.008654633  -2.566411643   0.737682086
  H   -2.881168425   1.809865293  -0.560909306
  H    0.282646187   1.904746531   1.106891385
  H   -3.954483836  -0.259635512  -1.334334359
  H   -1.002039908   2.810611939   0.525046645
  C   -2.552948701  -1.561357449  -0.362331568
  C   -1.420974478  -1.609940755   0.445224194
  C   -0.815284383  -0.447171546   0.893031141
  C   -1.325527116   0.807524595   0.531481702
  C   -2.469250409   0.850349121  -0.275604673
  C   -3.072483729  -0.320131297  -0.711598342
  N   -0.721433490   1.966326854   0.994661215
  C    1.433125604   0.909838932  -1.758994366
  H    1.707543096   0.311683598  -2.625814298
  H    1.740429255   1.940040006  -1.916381938
  H    0.348803312   0.889349454  -1.651677109
  C    2.046036753   0.405185160  -0.473681594
  O    2.132917144   1.107526272   0.525977471
  N    2.478947976  -0.878371778  -0.493076824
  H    2.285951054  -1.428647099  -1.309974246
  C    2.964534510  -1.551363041   0.695258599
  H    3.453161240  -0.821564527   1.333245265
  H    2.152088176  -2.012444082   1.260482147
  H    3.679910794  -2.320225459   0.413064820
