19
charge=0 charge_a=0 charge_b=0 selection_a=1-10 selection_b=11-19 scaling=0.95 benchmark_Eint=-4.456 benchmark_unit=kcal/mol group=NH-O
  H    3.293758499   0.750361027   1.305527015
  H    1.686415445   0.162353458   1.743221713
  H    1.902955535   1.825613159   1.168420634
  H    1.125934981   0.614068102  -0.666736051
  H    2.177140139  -1.223607960  -1.645777661
  H    3.478176579  -1.129229021  -0.458138273
  H    1.889946847  -1.697234291   0.041277063
  C    2.238449258   0.799457593   1.029873513
  N    2.068953461   0.411783979  -0.355469290
  C    2.409370137  -0.969106537  -0.613203039
  H   -1.514106511  -1.616671433   1.246413992
  H    0.008645162  -1.217494697   0.534170717
  H   -3.472173422  -0.520085653   0.817354918
  H   -3.179742281   1.202181570   0.506905317
  H   -3.510843197   0.121721199  -0.836277545
  O   -0.881742416   0.698575679  -0.809494940
  C   -1.534042110  -0.014750341  -0.066912751
  N   -0.976756937  -1.039737494   0.628414992
  C   -3.019382695   0.193204570   0.131977368
