25
charge=0 charge_a=0 charge_b=0 selection_a=1-14 selection_b=15-25 scaling=1.05 benchmark_Eint=-6.724 benchmark_unit=kcal/mol group=NH-O
  H   -0.018021151  -0.170916534   1.757251602
  H   -2.766074578  -2.650877567  -0.405223241
  H   -0.878483070  -2.404020164   1.184366839
  H   -2.900145455   1.608254426  -0.855628033
  H    0.118360947   2.150339376   0.949162782
  H   -3.779602699  -0.619516905  -1.402774418
  H   -1.179677053   2.874222077   0.195046719
  C   -2.385425549  -1.671444733  -0.156310785
  C   -1.326141629  -1.528860730   0.733946568
  C   -0.834539263  -0.274333836   1.056902670
  C   -1.384040149   0.876963698   0.478897816
  C   -2.459186070   0.728980678  -0.403970726
  C   -2.951359214  -0.530278894  -0.713407107
  N   -0.881030265   2.131018662   0.804628272
  H    2.668833951  -0.978188237   1.654437086
  H    3.713571944  -2.113408652   0.757242692
  H    4.127314938  -0.377883657   0.847917280
  H    0.868345687   1.315922686  -2.062298956
  C    1.999878663   0.263137992  -0.602505964
  O    2.575413645  -0.936925501  -0.423145018
  C    3.319573108  -1.103735067   0.791906856
  C    1.205086589   0.302677678  -1.874338262
  O    2.118987317   1.172399821   0.184340465
  H    0.340350836  -0.351381660  -1.770930831
  H    1.803850520  -0.060090535  -2.707330770
