26
charge=0 charge_a=0 charge_b=0 selection_a=1-14 selection_b=15-26 scaling=1.05 benchmark_Eint=-8.257 benchmark_unit=kcal/mol group=NH-O
  H    0.055826485  -0.491986329   1.530194231
  H   -3.023874727  -2.470634208  -0.705545957
  H   -1.008654633  -2.566411643   0.737682086
  H   -2.881168425   1.809865293  -0.560909306
  H    0.282646187   1.904746531   1.106891385
  H   -3.954483836  -0.259635512  -1.334334359
  H   -1.002039908   2.810611939   0.525046645
  C   -2.552948701  -1.561357449  -0.362331568
  C   -1.420974478  -1.609940755   0.445224194
  C   -0.815284383  -0.447171546   0.893031141
  C   -1.325527116   0.807524595   0.531481702
  C   -2.469250409   0.850349121  -0.275604673
  C   -3.072483729  -0.320131297  -0.711598342
  N   -0.721433490   1.966326854   0.994661215
  C    1.525639152   0.869977919  -1.788040062
  H    1.800056644   0.271822585  -2.654859994
  H    1.832942803   1.900178993  -1.945427634
  H    0.441316860   0.849488441  -1.680722805
  C    2.138550301   0.365324147  -0.502727290
  O    2.225430692   1.067665259   0.496931775
  N    2.571461524  -0.918232791  -0.522122520
  H    2.378464602  -1.468508112  -1.339019942
  C    3.057048058  -1.591224054   0.666212903
  H    3.545674788  -0.861425540   1.304199569
  H    2.244601724  -2.052305095   1.231436451
  H    3.772424342  -2.360086472   0.384019124
