17
charge=0 charge_a=0 charge_b=0 selection_a=1-10 selection_b=11-17 scaling=1.5 benchmark_Eint=-1.259 benchmark_unit=kcal/mol group=NH-O
  H    2.053541167  -1.948657171  -0.476072808
  H    0.663564668  -1.072843662  -1.125597059
  H    0.545973796  -1.918884875   0.433224657
  H    0.875530947   0.362595039   0.872020255
  H    2.784118695   1.591903154   0.305551325
  H    3.436151513   0.184494139  -0.530935485
  H    2.039106244   1.036806520  -1.205140735
  C    1.204768888  -1.322332735  -0.196651371
  N    1.671939076  -0.161999487   0.535580562
  C    2.514610993   0.706985029  -0.268404866
  H   -3.203335066  -1.232076830  -0.898829579
  H   -4.552625864  -0.372393323  -0.183885196
  H   -3.084562909  -0.665304116   0.790257052
  H   -3.239549149   1.166230692  -1.712525674
  C   -3.462129312  -0.432883754  -0.201495293
  C   -2.902072926   0.863287836  -0.701451465
  O   -2.139018909   1.563911487  -0.086987810
