26
charge=0 charge_a=0 charge_b=0 selection_a=1-14 selection_b=15-26 scaling=0.9 benchmark_Eint=-7.607 benchmark_unit=kcal/mol group=NH-O
  H    0.055826485  -0.491986329   1.530194231
  H   -3.023874727  -2.470634208  -0.705545957
  H   -1.008654633  -2.566411643   0.737682086
  H   -2.881168425   1.809865293  -0.560909306
  H    0.282646187   1.904746531   1.106891385
  H   -3.954483836  -0.259635512  -1.334334359
  H   -1.002039908   2.810611939   0.525046645
  C   -2.552948701  -1.561357449  -0.362331568
  C   -1.420974478  -1.609940755   0.445224194
  C   -0.815284383  -0.447171546   0.893031141
  C   -1.325527116   0.807524595   0.531481702
  C   -2.469250409   0.850349121  -0.275604673
  C   -3.072483729  -0.320131297  -0.711598342
  N   -0.721433490   1.966326854   0.994661215
  C    1.248098508   0.989560958  -1.700902975
  H    1.522516000   0.391405624  -2.567722907
  H    1.555402159   2.019762032  -1.858290547
  H    0.163776216   0.969071480  -1.593585718
  C    1.861009657   0.484907186  -0.415590203
  O    1.947890048   1.187248298   0.584068862
  N    2.293920880  -0.798649752  -0.434985433
  H    2.100923958  -1.348925073  -1.251882855
  C    2.779507414  -1.471641015   0.753349990
  H    3.268134144  -0.741842501   1.391336656
  H    1.967061080  -1.932722056   1.318573538
  H    3.494883698  -2.240503433   0.471156211
