24
charge=0 charge_a=0 charge_b=0 selection_a=1-14 selection_b=15-24 scaling=1.05 benchmark_Eint=-5.500 benchmark_unit=kcal/mol group=NH-O
  H   -0.164508782  -0.610452712   1.465848174
  H   -4.130340566  -1.616704601   0.184757526
  H   -2.093522798  -2.135434256   1.501159644
  H   -2.272463199   1.985731157  -1.206231423
  H    0.892949901   1.261123557   0.358505613
  H   -4.197174703   0.460185770  -1.169020401
  H    0.044757637   2.311898476  -0.634304596
  C   -3.283138127  -0.947170922   0.168303692
  C   -2.139263344  -1.234316653   0.904916692
  C   -1.048619373  -0.378424218   0.888507753
  C   -1.077489877   0.796076248   0.125337290
  C   -2.231764930   1.080739308  -0.613870099
  C   -3.317098254   0.218377124  -0.589051467
  N   -0.002348280   1.673742573   0.141571963
  H    2.309339285  -2.255647353  -0.913107755
  H    2.069530905  -1.359631417  -2.438436540
  H    0.911163947  -1.156976111  -1.099741357
  H    3.754988824   0.284236979   2.072413140
  H    4.593377858  -0.649266515   0.801365464
  H    4.284786692   1.096565989   0.577102258
  C    1.957348451  -1.322535620  -1.355900043
  O    2.766110263  -0.230192681  -0.955503536
  O    2.611398797  -0.125260918   0.491615100
  C    3.898523509   0.167786794   0.999290189
