23
charge=0 charge_a=0 charge_b=0 selection_a=1-14 selection_b=15-23 scaling=1.1 benchmark_Eint=-5.480 benchmark_unit=kcal/mol group=NH-O
  H    0.406471079  -0.906440076   0.922867363
  H   -3.590494581  -1.862085663  -0.297159934
  H   -1.369925019  -2.566801478   0.553005047
  H   -2.217179063   2.195257682  -0.422195912
  H    1.172906698   1.346792869   0.451122760
  H   -3.994294824   0.537521158  -0.775857137
  H    0.102895572   2.588683218   0.064238610
  C   -2.808412364  -1.133976801  -0.140763714
  C   -1.561292315  -1.524981679   0.334423534
  C   -0.554661051  -0.594495182   0.539239486
  C   -0.771178774   0.762567869   0.265614711
  C   -2.029587498   1.150553966  -0.209866718
  C   -3.031073151   0.212205604  -0.407362691
  N    0.225676766   1.695471081   0.509211734
  H    3.838566662  -0.212545504   1.607435880
  H    3.140967902  -1.663204944   0.850711001
  H    4.657320269  -0.975606176   0.225305502
  H    2.077253073   0.277519672  -2.000820128
  H    2.092282052  -1.366632866  -1.336684630
  H    3.592637748  -0.656544572  -1.987404275
  C    3.684934634  -0.730926660   0.664632027
  O    2.948112558   0.131027456  -0.178158264
  C    2.668322900  -0.442732520  -1.441809840
