20
charge=0 charge_a=0 charge_b=0 selection_a=1-14 selection_b=15-20 scaling=1.25 benchmark_Eint=-4.154 benchmark_unit=kcal/mol group=NH-O
  H   -0.636021666  -0.885345387   1.192537852
  H    3.314215860  -1.710689193  -0.258892420
  H    1.238219149  -2.449344686   0.878977398
  H    1.605294016   2.185271166  -0.773432156
  H   -1.613757989   1.234192319   0.551444933
  H    3.476135166   0.623937667  -1.080055604
  H   -0.700815175   2.466342106  -0.141401223
  C    2.490593028  -1.025232407  -0.124350667
  C    1.324331446  -1.435413017   0.512500593
  C    0.264051219  -0.560185355   0.689672520
  C    0.345815146   0.759576512   0.226054060
  C    1.522856596   1.167885136  -0.413109415
  C    2.577813810   0.284438854  -0.582861916
  N   -0.698682178   1.646313513   0.440095515
  O   -3.585009875  -0.373648656   0.155088266
  H   -4.404558844  -0.637933332   0.577206418
  C   -3.354024426  -1.189736591  -0.992756610
  H   -2.398362646  -0.882197155  -1.407461448
  H   -4.131055200  -1.050211144  -1.747090882
  H   -3.290242500  -2.246985795  -0.728593488
