25
charge=0 charge_a=0 charge_b=0 selection_a=1-14 selection_b=15-25 scaling=1.5 benchmark_Eint=-3.080 benchmark_unit=kcal/mol group=NH-O
  H   -0.018021151  -0.170916534   1.757251602
  H   -2.766074578  -2.650877567  -0.405223241
  H   -0.878483070  -2.404020164   1.184366839
  H   -2.900145455   1.608254426  -0.855628033
  H    0.118360947   2.150339376   0.949162782
  H   -3.779602699  -0.619516905  -1.402774418
  H   -1.179677053   2.874222077   0.195046719
  C   -2.385425549  -1.671444733  -0.156310785
  C   -1.326141629  -1.528860730   0.733946568
  C   -0.834539263  -0.274333836   1.056902670
  C   -1.384040149   0.876963698   0.478897816
  C   -2.459186070   0.728980678  -0.403970726
  C   -2.951359214  -0.530278894  -0.713407107
  N   -0.881030265   2.131018662   0.804628272
  H    3.526245253  -1.397305190   1.326656092
  H    4.570983246  -2.532525604   0.429461698
  H    4.984726240  -0.797000610   0.520136286
  H    1.725756989   0.896805734  -2.390079950
  C    2.857289965  -0.155978960  -0.930286958
  O    3.432824947  -1.356042454  -0.750926012
  C    4.176984410  -1.522852020   0.464125862
  C    2.062497891  -0.116439274  -2.202119256
  O    2.976398619   0.753282868  -0.143440528
  H    1.197762138  -0.770498612  -2.098711824
  H    2.661261822  -0.479207488  -3.035111764
