24
charge=0 charge_a=0 charge_b=0 selection_a=1-14 selection_b=15-24 scaling=1.0 benchmark_Eint=-5.614 benchmark_unit=kcal/mol group=NH-O
  H   -0.164508782  -0.610452712   1.465848174
  H   -4.130340566  -1.616704601   0.184757526
  H   -2.093522798  -2.135434256   1.501159644
  H   -2.272463199   1.985731157  -1.206231423
  H    0.892949901   1.261123557   0.358505613
  H   -4.197174703   0.460185770  -1.169020401
  H    0.044757637   2.311898476  -0.634304596
  C   -3.283138127  -0.947170922   0.168303692
  C   -2.139263344  -1.234316653   0.904916692
  C   -1.048619373  -0.378424218   0.888507753
  C   -1.077489877   0.796076248   0.125337290
  C   -2.231764930   1.080739308  -0.613870099
  C   -3.317098254   0.218377124  -0.589051467
  N   -0.002348280   1.673742573   0.141571963
  H    2.227508385  -2.189629045  -0.919446302
  H    1.987700005  -1.293613109  -2.444775087
  H    0.829333047  -1.090957803  -1.106079904
  H    3.673157924   0.350255287   2.066074593
  H    4.511546958  -0.583248207   0.795026917
  H    4.202955792   1.162584297   0.570763711
  C    1.875517551  -1.256517312  -1.362238590
  O    2.684279363  -0.164174373  -0.961842083
  O    2.529567897  -0.059242610   0.485276553
  C    3.816692609   0.233805102   0.992951642
