26
charge=0 charge_a=0 charge_b=0 selection_a=1-14 selection_b=15-26 scaling=1.5 benchmark_Eint=-4.103 benchmark_unit=kcal/mol group=NH-O
  H    0.055826485  -0.491986329   1.530194231
  H   -3.023874727  -2.470634208  -0.705545957
  H   -1.008654633  -2.566411643   0.737682086
  H   -2.881168425   1.809865293  -0.560909306
  H    0.282646187   1.904746531   1.106891385
  H   -3.954483836  -0.259635512  -1.334334359
  H   -1.002039908   2.810611939   0.525046645
  C   -2.552948701  -1.561357449  -0.362331568
  C   -1.420974478  -1.609940755   0.445224194
  C   -0.815284383  -0.447171546   0.893031141
  C   -1.325527116   0.807524595   0.531481702
  C   -2.469250409   0.850349121  -0.275604673
  C   -3.072483729  -0.320131297  -0.711598342
  N   -0.721433490   1.966326854   0.994661215
  C    2.358261082   0.511228802  -2.049451323
  H    2.632678574  -0.086926532  -2.916271255
  H    2.665564734   1.541429876  -2.206838895
  H    1.273938790   0.490739324  -1.942134066
  C    2.971172232   0.006575031  -0.764138551
  O    3.058052622   0.708916142   0.235520514
  N    3.404083454  -1.276981908  -0.783533781
  H    3.211086532  -1.827257228  -1.600431203
  C    3.889669988  -1.949973170   0.404801642
  H    4.378296718  -1.220174656   1.042788308
  H    3.077223654  -2.411054212   0.970025190
  H    4.605046272  -2.718835588   0.122607863
