26
charge=0 charge_a=0 charge_b=0 selection_a=1-14 selection_b=15-26 scaling=2.0 benchmark_Eint=-1.462 benchmark_unit=kcal/mol group=NH-O
  H   -0.158841472  -0.122032381   1.994745684
  H   -2.861075246  -2.581564826  -0.249341208
  H   -1.083339881  -2.340335673   1.463269069
  H   -2.745836012   1.650635612  -0.914178666
  H    0.127531577   2.153326073   1.144972252
  H   -3.691055259  -0.558878066  -1.421046737
  H   -1.020994919   2.877208187   0.186712849
  C   -2.448616415  -1.609774968  -0.022049839
  C   -1.451370258  -1.469993765   0.937326246
  C   -0.922460474  -0.224115836   1.236463397
  C   -1.372015135   0.921868151   0.567672135
  C   -2.382674225   0.776034938  -0.390358061
  C   -2.912372675  -0.472903828  -0.675648218
  N   -0.846871658   2.167418848   0.878925961
  H    1.968041162  -1.914725794  -2.159182441
  H    3.464968458  -1.867825021  -3.130322220
  H    2.135990569  -0.731424409  -3.476137889
  H    4.967598072  -3.438627590   0.342948536
  H    5.722367325  -1.847567230   0.647721021
  H    4.144110618  -2.228031258   1.362846742
  O    3.187227865  -0.261983657  -1.823646822
  C    3.832913730  -0.618053501  -0.718417122
  O    4.116689233   0.172982177   0.144431210
  O    4.132501545  -1.923240752  -0.691974329
  C    4.787101432  -2.380911294   0.499672426
  C    2.661101849  -1.276456402  -2.699883850
