17
charge=0 charge_a=0 charge_b=0 selection_a=1-10 selection_b=11-17 scaling=0.85 benchmark_Eint=-1.726 benchmark_unit=kcal/mol group=NH-O
  H    2.053541167  -1.948657171  -0.476072808
  H    0.663564668  -1.072843662  -1.125597059
  H    0.545973796  -1.918884875   0.433224657
  H    0.875530947   0.362595039   0.872020255
  H    2.784118695   1.591903154   0.305551325
  H    3.436151513   0.184494139  -0.530935485
  H    2.039106244   1.036806520  -1.205140735
  C    1.204768888  -1.322332735  -0.196651371
  N    1.671939076  -0.161999487   0.535580562
  C    2.514610993   0.706985029  -0.268404866
  H   -1.897030128  -1.752647291  -0.483259418
  H   -3.246320926  -0.892963784   0.231684966
  H   -1.778257971  -1.185874577   1.205827214
  H   -1.933244211   0.645660231  -1.296955512
  C   -2.155824374  -0.953454215   0.214074868
  C   -1.595767988   0.342717375  -0.285881304
  O   -0.832713971   1.043341026   0.328582352
