17
charge=0 charge_a=0 charge_b=0 selection_a=1-14 selection_b=15-17 scaling=1.0 benchmark_Eint=-4.524 benchmark_unit=kcal/mol group=NH-O
  H    0.915519296  -1.086998046   1.302100379
  H   -3.003410105  -1.411441909  -0.404667848
  H   -1.098378133  -2.416199435   0.823782353
  H   -0.825756702   2.266125596  -0.711303850
  H    2.192065052   0.902127388   0.639127877
  H   -2.847710094   0.946290354  -1.156441255
  H    1.439273462   2.264986189   0.047258512
  C   -2.114233195  -0.831990582  -0.205635090
  C   -1.042951882  -1.392795456   0.478842127
  C    0.101109837  -0.651325100   0.739509579
  C    0.201529070   0.678805368   0.308858458
  C   -0.883686067   1.238968729  -0.375565525
  C   -2.023624912   0.491145388  -0.624654220
  N    1.333624588   1.430417549   0.599773351
  O    3.010486504  -0.823504291  -0.700176928
  H    3.486279980  -1.654372594  -0.768239302
  H    2.081767455  -1.049295019  -0.821442329
