26
charge=0 charge_a=0 charge_b=0 selection_a=1-14 selection_b=15-26 scaling=1.25 benchmark_Eint=-6.428 benchmark_unit=kcal/mol group=NH-O
  H    0.055826485  -0.491986329   1.530194231
  H   -3.023874727  -2.470634208  -0.705545957
  H   -1.008654633  -2.566411643   0.737682086
  H   -2.881168425   1.809865293  -0.560909306
  H    0.282646187   1.904746531   1.106891385
  H   -3.954483836  -0.259635512  -1.334334359
  H   -1.002039908   2.810611939   0.525046645
  C   -2.552948701  -1.561357449  -0.362331568
  C   -1.420974478  -1.609940755   0.445224194
  C   -0.815284383  -0.447171546   0.893031141
  C   -1.325527116   0.807524595   0.531481702
  C   -2.469250409   0.850349121  -0.275604673
  C   -3.072483729  -0.320131297  -0.711598342
  N   -0.721433490   1.966326854   0.994661215
  C    1.895693343   0.710533867  -1.904222844
  H    2.170110835   0.112378533  -2.771042776
  H    2.202996994   1.740734941  -2.061610416
  H    0.811371051   0.690044389  -1.796905588
  C    2.508604492   0.205880095  -0.618910072
  O    2.595484883   0.908221207   0.380748992
  N    2.941515715  -1.077676843  -0.638305302
  H    2.748518793  -1.627952164  -1.455202724
  C    3.427102249  -1.750668106   0.550030120
  H    3.915728979  -1.020869592   1.188016786
  H    2.614655915  -2.211749147   1.115253668
  H    4.142478533  -2.519530524   0.267836342
