23
charge=0 charge_a=0 charge_b=0 selection_a=1-14 selection_b=15-23 scaling=2.0 benchmark_Eint=-1.026 benchmark_unit=kcal/mol group=NH-O
  H    0.406471079  -0.906440076   0.922867363
  H   -3.590494581  -1.862085663  -0.297159934
  H   -1.369925019  -2.566801478   0.553005047
  H   -2.217179063   2.195257682  -0.422195912
  H    1.172906698   1.346792869   0.451122760
  H   -3.994294824   0.537521158  -0.775857137
  H    0.102895572   2.588683218   0.064238610
  C   -2.808412364  -1.133976801  -0.140763714
  C   -1.561292315  -1.524981679   0.334423534
  C   -0.554661051  -0.594495182   0.539239486
  C   -0.771178774   0.762567869   0.265614711
  C   -2.029587498   1.150553966  -0.209866718
  C   -3.031073151   0.212205604  -0.407362691
  N    0.225676766   1.695471081   0.509211734
  H    5.291007820  -1.207262661   1.092569588
  H    4.593409060  -2.657922100   0.335844709
  H    6.109761427  -1.970323332  -0.289560790
  H    3.529694231  -0.717197485  -2.515686420
  H    3.544723210  -2.361350022  -1.851550922
  H    5.045078906  -1.651261728  -2.502270567
  C    5.137375792  -1.725643817   0.149765735
  O    4.400553716  -0.863689701  -0.693024556
  C    4.120764058  -1.437449677  -1.956676132
