26
charge=0 charge_a=0 charge_b=0 selection_a=1-14 selection_b=15-26 scaling=0.8 benchmark_Eint=-3.798 benchmark_unit=kcal/mol group=NH-O
  H    0.055826485  -0.491986329   1.530194231
  H   -3.023874727  -2.470634208  -0.705545957
  H   -1.008654633  -2.566411643   0.737682086
  H   -2.881168425   1.809865293  -0.560909306
  H    0.282646187   1.904746531   1.106891385
  H   -3.954483836  -0.259635512  -1.334334359
  H   -1.002039908   2.810611939   0.525046645
  C   -2.552948701  -1.561357449  -0.362331568
  C   -1.420974478  -1.609940755   0.445224194
  C   -0.815284383  -0.447171546   0.893031141
  C   -1.325527116   0.807524595   0.531481702
  C   -2.469250409   0.850349121  -0.275604673
  C   -3.072483729  -0.320131297  -0.711598342
  N   -0.721433490   1.966326854   0.994661215
  C    1.063071413   1.069282984  -1.642811583
  H    1.337488905   0.471127650  -2.509631515
  H    1.370375064   2.099484058  -1.800199155
  H   -0.021250879   1.048793506  -1.535494326
  C    1.675982562   0.564629212  -0.357498811
  O    1.762862953   1.266970324   0.642160254
  N    2.108893785  -0.718927726  -0.376894041
  H    1.915896863  -1.269203047  -1.193791463
  C    2.594480319  -1.391918989   0.811441382
  H    3.083107049  -0.662120475   1.449428048
  H    1.782033985  -1.853000030   1.376664930
  H    3.309856603  -2.160781407   0.529247603
