18
charge=0 charge_a=0 charge_b=0 selection_a=1-10 selection_b=11-18 scaling=1.1 benchmark_Eint=-4.478 benchmark_unit=kcal/mol group=NH-O
  H   -3.701151382   0.003070569   1.193876327
  H   -3.441987345   1.424614477   0.175845372
  H   -2.510504574   1.211356271   1.670536981
  H   -1.117824896   0.535056991  -0.092811622
  H   -1.539505948  -1.210236243  -1.576141656
  H   -3.100787555  -1.496298509  -0.808236909
  H   -2.857109301  -0.043341589  -1.785937972
  C   -2.937341055   0.685947890   0.817347317
  N   -1.899789452  -0.066478424   0.134364921
  C   -2.373573845  -0.725490908  -1.070153059
  H    3.492184363   1.000609526  -0.633508175
  H    0.430039570  -1.109877440   0.820404235
  H    1.841828754  -1.994744050   0.175879006
  H    1.990433341  -1.131791242   1.694343637
  O    1.223267185   0.964123694  -0.490515412
  C    1.946828540   0.117203560  -0.027569962
  O    3.292244523   0.191364155  -0.142880643
  C    1.510980356  -1.108380692   0.716644795
