23
charge=0 charge_a=0 charge_b=0 selection_a=1-14 selection_b=15-23 scaling=1.25 benchmark_Eint=-4.349 benchmark_unit=kcal/mol group=NH-O
  H    0.406471079  -0.906440076   0.922867363
  H   -3.590494581  -1.862085663  -0.297159934
  H   -1.369925019  -2.566801478   0.553005047
  H   -2.217179063   2.195257682  -0.422195912
  H    1.172906698   1.346792869   0.451122760
  H   -3.994294824   0.537521158  -0.775857137
  H    0.102895572   2.588683218   0.064238610
  C   -2.808412364  -1.133976801  -0.140763714
  C   -1.561292315  -1.524981679   0.334423534
  C   -0.554661051  -0.594495182   0.539239486
  C   -0.771178774   0.762567869   0.265614711
  C   -2.029587498   1.150553966  -0.209866718
  C   -3.031073151   0.212205604  -0.407362691
  N    0.225676766   1.695471081   0.509211734
  H    4.080640188  -0.378331697   1.521624832
  H    3.383041428  -1.828991136   0.764899952
  H    4.899393795  -1.141392368   0.139494454
  H    2.319326599   0.111733479  -2.086631176
  H    2.334355578  -1.532419058  -1.422495678
  H    3.834711274  -0.822330764  -2.073215324
  C    3.927008160  -0.896712853   0.578820978
  O    3.190186084  -0.034758737  -0.263969312
  C    2.910396426  -0.608518713  -1.527620888
