24
charge=0 charge_a=0 charge_b=0 selection_a=1-14 selection_b=15-24 scaling=2.0 benchmark_Eint=-1.028 benchmark_unit=kcal/mol group=NH-O
  H   -0.164508782  -0.610452712   1.465848174
  H   -4.130340566  -1.616704601   0.184757526
  H   -2.093522798  -2.135434256   1.501159644
  H   -2.272463199   1.985731157  -1.206231423
  H    0.892949901   1.261123557   0.358505613
  H   -4.197174703   0.460185770  -1.169020401
  H    0.044757637   2.311898476  -0.634304596
  C   -3.283138127  -0.947170922   0.168303692
  C   -2.139263344  -1.234316653   0.904916692
  C   -1.048619373  -0.378424218   0.888507753
  C   -1.077489877   0.796076248   0.125337290
  C   -2.231764930   1.080739308  -0.613870099
  C   -3.317098254   0.218377124  -0.589051467
  N   -0.002348280   1.673742573   0.141571963
  H    3.864126381  -3.509995212  -0.792675362
  H    3.624318001  -2.613979276  -2.318004147
  H    2.465951043  -2.411323970  -0.979308964
  H    5.309775920  -0.970110880   2.192845533
  H    6.148164954  -1.903614374   0.921797857
  H    5.839573788  -0.157781870   0.697534651
  C    3.512135547  -2.576883479  -1.235467650
  O    4.320897359  -1.484540540  -0.835071143
  O    4.166185893  -1.379608777   0.612047493
  C    5.453310605  -1.086561065   1.119722582
