25
charge=0 charge_a=0 charge_b=0 selection_a=1-14 selection_b=15-25 scaling=2.0 benchmark_Eint=-1.143 benchmark_unit=kcal/mol group=NH-O
  H   -0.018021151  -0.170916534   1.757251602
  H   -2.766074578  -2.650877567  -0.405223241
  H   -0.878483070  -2.404020164   1.184366839
  H   -2.900145455   1.608254426  -0.855628033
  H    0.118360947   2.150339376   0.949162782
  H   -3.779602699  -0.619516905  -1.402774418
  H   -1.179677053   2.874222077   0.195046719
  C   -2.385425549  -1.671444733  -0.156310785
  C   -1.326141629  -1.528860730   0.733946568
  C   -0.834539263  -0.274333836   1.056902670
  C   -1.384040149   0.876963698   0.478897816
  C   -2.459186070   0.728980678  -0.403970726
  C   -2.951359214  -0.530278894  -0.713407107
  N   -0.881030265   2.131018662   0.804628272
  H    4.478924477  -1.862990692   0.962454989
  H    5.523662470  -2.998211107   0.065260595
  H    5.937405464  -1.262686112   0.155935183
  H    2.678436213   0.431120231  -2.754281053
  C    3.809969189  -0.621664463  -1.294488061
  O    4.385504171  -1.821727956  -1.115127115
  C    5.129663634  -1.988537522   0.099924759
  C    3.015177115  -0.582124777  -2.566320359
  O    3.929077843   0.287597366  -0.507641632
  H    2.150441362  -1.236184115  -2.462912928
  H    3.613941046  -0.944892990  -3.399312867
