23
charge=0 charge_a=0 charge_b=0 selection_a=1-14 selection_b=15-23 scaling=0.9 benchmark_Eint=-5.212 benchmark_unit=kcal/mol group=NH-O
  H    0.406471079  -0.906440076   0.922867363
  H   -3.590494581  -1.862085663  -0.297159934
  H   -1.369925019  -2.566801478   0.553005047
  H   -2.217179063   2.195257682  -0.422195912
  H    1.172906698   1.346792869   0.451122760
  H   -3.994294824   0.537521158  -0.775857137
  H    0.102895572   2.588683218   0.064238610
  C   -2.808412364  -1.133976801  -0.140763714
  C   -1.561292315  -1.524981679   0.334423534
  C   -0.554661051  -0.594495182   0.539239486
  C   -0.771178774   0.762567869   0.265614711
  C   -2.029587498   1.150553966  -0.209866718
  C   -3.031073151   0.212205604  -0.407362691
  N    0.225676766   1.695471081   0.509211734
  H    3.515801960   0.008502752   1.721850612
  H    2.818203200  -1.442156686   0.965125733
  H    4.334555567  -0.754557918   0.339720234
  H    1.754488371   0.498567928  -1.886405396
  H    1.769517350  -1.145584608  -1.222269898
  H    3.269873046  -0.435496314  -1.872989543
  C    3.362169932  -0.509878404   0.779046759
  O    2.625347856   0.352075712  -0.063743532
  C    2.345558198  -0.221684264  -1.327395108
