17
charge=0 charge_a=0 charge_b=0 selection_a=1-10 selection_b=11-17 scaling=1.05 benchmark_Eint=-3.093 benchmark_unit=kcal/mol group=NH-O
  H    2.053541167  -1.948657171  -0.476072808
  H    0.663564668  -1.072843662  -1.125597059
  H    0.545973796  -1.918884875   0.433224657
  H    0.875530947   0.362595039   0.872020255
  H    2.784118695   1.591903154   0.305551325
  H    3.436151513   0.184494139  -0.530935485
  H    2.039106244   1.036806520  -1.205140735
  C    1.204768888  -1.322332735  -0.196651371
  N    1.671939076  -0.161999487   0.535580562
  C    2.514610993   0.706985029  -0.268404866
  H   -2.298970109  -1.592471764  -0.611127160
  H   -3.648260907  -0.732788257   0.103817224
  H   -2.180197952  -1.025699050   1.077959472
  H   -2.335184192   0.805835758  -1.424823254
  C   -2.557764355  -0.793278688   0.086207126
  C   -1.997707969   0.502892902  -0.413749046
  O   -1.234653952   1.203516553   0.200714610
