26
charge=0 charge_a=0 charge_b=0 selection_a=1-14 selection_b=15-26 scaling=1.05 benchmark_Eint=-8.422 benchmark_unit=kcal/mol group=NH-O
  H   -0.158841472  -0.122032381   1.994745684
  H   -2.861075246  -2.581564826  -0.249341208
  H   -1.083339881  -2.340335673   1.463269069
  H   -2.745836012   1.650635612  -0.914178666
  H    0.127531577   2.153326073   1.144972252
  H   -3.691055259  -0.558878066  -1.421046737
  H   -1.020994919   2.877208187   0.186712849
  C   -2.448616415  -1.609774968  -0.022049839
  C   -1.451370258  -1.469993765   0.937326246
  C   -0.922460474  -0.224115836   1.236463397
  C   -1.372015135   0.921868151   0.567672135
  C   -2.382674225   0.776034938  -0.390358061
  C   -2.912372675  -0.472903828  -0.675648218
  N   -0.846871658   2.167418848   0.878925961
  H    0.073191275  -0.974062443  -1.683925446
  H    1.570118571  -0.927161670  -2.655065225
  H    0.241140682   0.209238942  -3.000880894
  H    3.072748185  -2.497964239   0.818205531
  H    3.827517438  -0.906903879   1.122978016
  H    2.249260731  -1.287367907   1.838103737
  O    1.292377978   0.678679694  -1.348389827
  C    1.938063843   0.322609850  -0.243160127
  O    2.221839346   1.113645528   0.619688205
  O    2.237651658  -0.982577401  -0.216717334
  C    2.892251545  -1.440247943   0.974929421
  C    0.766251962  -0.335793051  -2.224626855
