26
charge=0 charge_a=0 charge_b=0 selection_a=1-14 selection_b=15-26 scaling=2.0 benchmark_Eint=-1.676 benchmark_unit=kcal/mol group=NH-O
  H    0.055826485  -0.491986329   1.530194231
  H   -3.023874727  -2.470634208  -0.705545957
  H   -1.008654633  -2.566411643   0.737682086
  H   -2.881168425   1.809865293  -0.560909306
  H    0.282646187   1.904746531   1.106891385
  H   -3.954483836  -0.259635512  -1.334334359
  H   -1.002039908   2.810611939   0.525046645
  C   -2.552948701  -1.561357449  -0.362331568
  C   -1.420974478  -1.609940755   0.445224194
  C   -0.815284383  -0.447171546   0.893031141
  C   -1.325527116   0.807524595   0.531481702
  C   -2.469250409   0.850349121  -0.275604673
  C   -3.072483729  -0.320131297  -0.711598342
  N   -0.721433490   1.966326854   0.994661215
  C    3.283396561   0.112618673  -2.339908280
  H    3.557814053  -0.485536661  -3.206728212
  H    3.590700212   1.142819747  -2.497295852
  H    2.199074269   0.092129195  -2.232591023
  C    3.896307710  -0.392035099  -1.054595508
  O    3.983188101   0.310306013  -0.054936443
  N    4.329218933  -1.675592037  -1.073990738
  H    4.136222011  -2.225867358  -1.890888160
  C    4.814805467  -2.348583300   0.114344685
  H    5.303432197  -1.618784786   0.752331351
  H    4.002359133  -2.809664341   0.679568233
  H    5.530181751  -3.117445718  -0.167849094
