17
charge=0 charge_a=0 charge_b=0 selection_a=1-10 selection_b=11-17 scaling=1.25 benchmark_Eint=-2.224 benchmark_unit=kcal/mol group=NH-O
  H    2.053541167  -1.948657171  -0.476072808
  H    0.663564668  -1.072843662  -1.125597059
  H    0.545973796  -1.918884875   0.433224657
  H    0.875530947   0.362595039   0.872020255
  H    2.784118695   1.591903154   0.305551325
  H    3.436151513   0.184494139  -0.530935485
  H    2.039106244   1.036806520  -1.205140735
  C    1.204768888  -1.322332735  -0.196651371
  N    1.671939076  -0.161999487   0.535580562
  C    2.514610993   0.706985029  -0.268404866
  H   -2.700910090  -1.432296238  -0.738994902
  H   -4.050200888  -0.572612731  -0.024050519
  H   -2.582137933  -0.865523524   0.950091730
  H   -2.737124173   0.966011284  -1.552690996
  C   -2.959704336  -0.633103162  -0.041660616
  C   -2.399647950   0.663068428  -0.541616788
  O   -1.636593933   1.363692079   0.072846868
