25
charge=0 charge_a=0 charge_b=0 selection_a=1-14 selection_b=15-25 scaling=0.8 benchmark_Eint=-2.601 benchmark_unit=kcal/mol group=NH-O
  H   -0.018021151  -0.170916534   1.757251602
  H   -2.766074578  -2.650877567  -0.405223241
  H   -0.878483070  -2.404020164   1.184366839
  H   -2.900145455   1.608254426  -0.855628033
  H    0.118360947   2.150339376   0.949162782
  H   -3.779602699  -0.619516905  -1.402774418
  H   -1.179677053   2.874222077   0.195046719
  C   -2.385425549  -1.671444733  -0.156310785
  C   -1.326141629  -1.528860730   0.733946568
  C   -0.834539263  -0.274333836   1.056902670
  C   -1.384040149   0.876963698   0.478897816
  C   -2.459186070   0.728980678  -0.403970726
  C   -2.951359214  -0.530278894  -0.713407107
  N   -0.881030265   2.131018662   0.804628272
  H    2.192494339  -0.745345486   1.836537637
  H    3.237232332  -1.880565901   0.939343243
  H    3.650975326  -0.145040906   1.030017831
  H    0.392006075   1.548765437  -1.880198405
  C    1.523539051   0.495980743  -0.420405413
  O    2.099074033  -0.704082750  -0.241044467
  C    2.843233496  -0.870892316   0.974007407
  C    0.728746977   0.535520429  -1.692237711
  O    1.642647705   1.405242572   0.366441016
  H   -0.135988776  -0.118538909  -1.588830280
  H    1.327510908   0.172752216  -2.525230219
