18
charge=0 charge_a=0 charge_b=0 selection_a=1-10 selection_b=11-18 scaling=1.0 benchmark_Eint=-4.761 benchmark_unit=kcal/mol group=NH-O
  H   -3.701151382   0.003070569   1.193876327
  H   -3.441987345   1.424614477   0.175845372
  H   -2.510504574   1.211356271   1.670536981
  H   -1.117824896   0.535056991  -0.092811622
  H   -1.539505948  -1.210236243  -1.576141656
  H   -3.100787555  -1.496298509  -0.808236909
  H   -2.857109301  -0.043341589  -1.785937972
  C   -2.937341055   0.685947890   0.817347317
  N   -1.899789452  -0.066478424   0.134364921
  C   -2.373573845  -0.725490908  -1.070153059
  H    3.279357810   0.961603462  -0.597353285
  H    0.217213017  -1.148883504   0.856559125
  H    1.629002201  -2.033750114   0.212033896
  H    1.777606788  -1.170797306   1.730498527
  O    1.010440632   0.925117630  -0.454360522
  C    1.734001987   0.078197496   0.008584928
  O    3.079417970   0.152358091  -0.106725753
  C    1.298153803  -1.147386756   0.752799685
