23
charge=0 charge_a=0 charge_b=0 selection_a=1-14 selection_b=15-23 scaling=0.8 benchmark_Eint=-2.057 benchmark_unit=kcal/mol group=NH-O
  H    0.406471079  -0.906440076   0.922867363
  H   -3.590494581  -1.862085663  -0.297159934
  H   -1.369925019  -2.566801478   0.553005047
  H   -2.217179063   2.195257682  -0.422195912
  H    1.172906698   1.346792869   0.451122760
  H   -3.994294824   0.537521158  -0.775857137
  H    0.102895572   2.588683218   0.064238610
  C   -2.808412364  -1.133976801  -0.140763714
  C   -1.561292315  -1.524981679   0.334423534
  C   -0.554661051  -0.594495182   0.539239486
  C   -0.771178774   0.762567869   0.265614711
  C   -2.029587498   1.150553966  -0.209866718
  C   -3.031073151   0.212205604  -0.407362691
  N    0.225676766   1.695471081   0.509211734
  H    3.354419609   0.119026881   1.779057978
  H    2.656820849  -1.331632558   1.022333099
  H    4.173173216  -0.644033790   0.396927600
  H    1.593106020   0.609092057  -1.829198030
  H    1.608134999  -1.035060480  -1.165062532
  H    3.108490695  -0.324972186  -1.815782177
  C    3.200787581  -0.399354275   0.836254125
  O    2.463965505   0.462599841  -0.006536166
  C    2.184175847  -0.111160135  -1.270187742
