25
charge=0 charge_a=0 charge_b=0 selection_a=1-14 selection_b=15-25 scaling=1.1 benchmark_Eint=-6.405 benchmark_unit=kcal/mol group=NH-O
  H   -0.018021151  -0.170916534   1.757251602
  H   -2.766074578  -2.650877567  -0.405223241
  H   -0.878483070  -2.404020164   1.184366839
  H   -2.900145455   1.608254426  -0.855628033
  H    0.118360947   2.150339376   0.949162782
  H   -3.779602699  -0.619516905  -1.402774418
  H   -1.179677053   2.874222077   0.195046719
  C   -2.385425549  -1.671444733  -0.156310785
  C   -1.326141629  -1.528860730   0.733946568
  C   -0.834539263  -0.274333836   1.056902670
  C   -1.384040149   0.876963698   0.478897816
  C   -2.459186070   0.728980678  -0.403970726
  C   -2.951359214  -0.530278894  -0.713407107
  N   -0.881030265   2.131018662   0.804628272
  H    2.764101874  -1.024756788   1.618016975
  H    3.808839867  -2.159977202   0.720822581
  H    4.222582861  -0.424452208   0.811497169
  H    0.963613610   1.269354136  -2.098719067
  C    2.095146586   0.216569442  -0.638926075
  O    2.670681568  -0.983494052  -0.459565129
  C    3.414841031  -1.150303618   0.755486745
  C    1.300354512   0.256109128  -1.910758373
  O    2.214255240   1.125831270   0.147920354
  H    0.435618759  -0.397950210  -1.807350942
  H    1.899118443  -0.106659086  -2.743750881
