24
charge=0 charge_a=0 charge_b=0 selection_a=1-14 selection_b=15-24 scaling=0.95 benchmark_Eint=-5.506 benchmark_unit=kcal/mol group=NH-O
  H   -0.164508782  -0.610452712   1.465848174
  H   -4.130340566  -1.616704601   0.184757526
  H   -2.093522798  -2.135434256   1.501159644
  H   -2.272463199   1.985731157  -1.206231423
  H    0.892949901   1.261123557   0.358505613
  H   -4.197174703   0.460185770  -1.169020401
  H    0.044757637   2.311898476  -0.634304596
  C   -3.283138127  -0.947170922   0.168303692
  C   -2.139263344  -1.234316653   0.904916692
  C   -1.048619373  -0.378424218   0.888507753
  C   -1.077489877   0.796076248   0.125337290
  C   -2.231764930   1.080739308  -0.613870099
  C   -3.317098254   0.218377124  -0.589051467
  N   -0.002348280   1.673742573   0.141571963
  H    2.145677485  -2.123610737  -0.925784849
  H    1.905869105  -1.227594801  -2.451113634
  H    0.747502147  -1.024939495  -1.112418451
  H    3.591327024   0.416273595   2.059736046
  H    4.429716058  -0.517229899   0.788688370
  H    4.121124892   1.228602605   0.564425164
  C    1.793686651  -1.190499004  -1.368577137
  O    2.602448463  -0.098156065  -0.968180630
  O    2.447736997   0.006775698   0.478938006
  C    3.734861709   0.299823410   0.986613095
