19
charge=0 charge_a=0 charge_b=0 selection_a=1-10 selection_b=11-19 scaling=1.25 benchmark_Eint=-2.541 benchmark_unit=kcal/mol group=NH-O
  H    2.608203904   1.497244723  -0.867575466
  H    1.231655844   0.670877871  -1.604787738
  H    0.972697359   2.035396964  -0.498590308
  H    0.604392971   0.085748211   0.731006230
  H    2.184302947  -1.589158379   1.154618280
  H    3.355540482  -0.738306657   0.151063733
  H    1.962281622  -1.519139286  -0.605419456
  C    1.588503033   1.155520500  -0.680763069
  N    1.563895883   0.288378657   0.481857338
  C    2.292461515  -0.950208525   0.279425410
  H   -2.707831780   1.348095222   1.172799134
  H   -3.831792930   0.609875342   0.008860987
  H   -2.366115972   1.435783476  -0.570298590
  H   -1.462444900  -2.062069621  -0.605604071
  H   -3.072768336  -1.470672753  -1.074496614
  H   -1.612288456  -0.629386365  -1.646261726
  C   -2.778354294   0.811767167   0.230143389
  O   -2.047100836  -0.388434263   0.371167360
  C   -2.054396750  -1.172374146  -0.804159438
