23
charge=0 charge_a=0 charge_b=0 selection_a=1-10 selection_b=11-23 scaling=0.8 benchmark_Eint=-1.090 benchmark_unit=kcal/mol group=NH-O
  H   -3.173192027  -1.464950592  -1.510336852
  H   -3.282605353   0.256698889  -1.897320542
  H   -1.700609360  -0.504171773  -1.638966736
  H   -2.240288519   0.597795663   0.339857329
  H   -4.091942466   0.137270380   1.710866961
  H   -4.642899552  -1.070595995   0.553363130
  H   -4.735849994   0.643995306   0.136044443
  C   -2.734944518  -0.487910022  -1.299453914
  N   -2.776421966  -0.232984818   0.130126581
  C   -4.126340986  -0.114294221   0.651792414
  H   -0.807333662  -1.117620931   0.675916286
  H    3.331991887  -2.037393416  -0.031500688
  H    1.040409921  -2.768086563   0.559112544
  H    1.928437276   1.996888739  -0.379173417
  H   -0.296355346   2.292812842   0.030974319
  H    3.765947447   0.355770996  -0.500402160
  C    2.528113195  -1.318069560   0.021584204
  C    1.240148387  -1.725878853   0.353432850
  C    0.198856087  -0.811946358   0.425299912
  C    0.455570930   0.529008070   0.159402318
  C    1.737945193   0.950667473  -0.173946125
  C    2.770700824   0.023479096  -0.241226836
  O   -0.598589454   1.404652877   0.237279479
