20
charge=0 charge_a=0 charge_b=0 selection_a=1-10 selection_b=11-20 scaling=0.8 benchmark_Eint=-1.126 benchmark_unit=kcal/mol group=NH-O
  H    3.705623306   0.283213326   1.158151282
  H    3.343094878   1.507343383  -0.064450512
  H    2.448539574   1.478863209   1.467131194
  H    1.074297083   0.451166923  -0.131733280
  H    1.582444099  -1.478339629  -1.333638631
  H    3.170921301  -1.545414665  -0.571433210
  H    2.819642347  -0.281702278  -1.757279609
  C    2.894796828   0.850740158   0.697315987
  N    1.896233286  -0.059987929   0.166966683
  C    2.391890574  -0.870337530  -0.931052422
  H   -1.202200140  -2.102767029   0.392705279
  H    0.146926823  -1.149330609   1.057095438
  H   -1.449388565  -1.186651416   1.863532192
  H   -3.083659159   0.996758376  -0.768429658
  H   -3.352235739  -0.727447613  -0.395601660
  C   -0.928895721  -1.177420597   0.904946821
  C   -1.381301159  -0.002990549   0.071661010
  O   -0.595112743   0.746920023  -0.465508326
  C   -2.872538036   0.195408127  -0.067003563
  H   -3.298565202   0.442251357   0.907364358
