14
charge=0 charge_a=0 charge_b=0 selection_a=1-7 selection_b=8-14 scaling=0.85 benchmark_Eint=-2.758 benchmark_unit=kcal/mol group=NH-O
  N   -1.738257590  -0.036342273  -0.699663151
  H   -0.969151528   0.623244535  -0.709253901
  H   -2.412123860   0.266661278  -1.389648823
  C   -2.343321657  -0.084029552   0.630262989
  H   -3.147801398  -0.819221818   0.641315593
  H   -2.750634222   0.869215527   0.986797531
  H   -1.594673646  -0.411287084   1.351770086
  H    1.795374196  -1.778902996  -0.866999887
  H    1.211890615  -1.871781089   0.778436574
  H    0.080300733  -1.391213600  -0.525334473
  H    2.540404861   0.252583668   0.432325584
  C    1.101519888  -1.320009927  -0.158467278
  C    1.504642527   0.104179989   0.065578518
  O    0.796871321   1.062570014  -0.120846457
