23
charge=0 charge_a=0 charge_b=0 selection_a=1-10 selection_b=11-23 scaling=2.0 benchmark_Eint=-0.514 benchmark_unit=kcal/mol group=NH-O
  H   -3.173192027  -1.464950592  -1.510336852
  H   -3.282605353   0.256698889  -1.897320542
  H   -1.700609360  -0.504171773  -1.638966736
  H   -2.240288519   0.597795663   0.339857329
  H   -4.091942466   0.137270380   1.710866961
  H   -4.642899552  -1.070595995   0.553363130
  H   -4.735849994   0.643995306   0.136044443
  C   -2.734944518  -0.487910022  -1.299453914
  N   -2.776421966  -0.232984818   0.130126581
  C   -4.126340986  -0.114294221   0.651792414
  H    1.655214935   0.092664889   0.522049510
  H    5.794540484  -0.827107596  -0.185367464
  H    3.502958518  -1.557800743   0.405245768
  H    4.390985873   3.207174559  -0.533040193
  H    2.166193251   3.503098662  -0.122892457
  H    6.228496044   1.566056816  -0.654268936
  C    4.990661792  -0.107783740  -0.132282572
  C    3.702696984  -0.515593033   0.199566074
  C    2.661404684   0.398339462   0.271433136
  C    2.918119527   1.739293890   0.005535542
  C    4.200493790   2.160953293  -0.327812901
  C    5.233249421   1.233764916  -0.395093612
  O    1.863959143   2.614938697   0.083412703
