22
charge=0 charge_a=0 charge_b=0 selection_a=1-10 selection_b=11-22 scaling=1.5 benchmark_Eint=-2.398 benchmark_unit=kcal/mol group=NH-O
  H   -2.559910633   1.360134864  -1.757306418
  H   -2.344035882   2.224787673  -0.229326425
  H   -0.973044402   1.403337528  -0.992433504
  H   -1.741202867  -0.007338891   0.695728499
  H   -3.882837595  -0.962180482   0.824690389
  H   -4.355526262  -0.093723053  -0.633927924
  H   -4.101301859   0.797669092   0.871257837
  C   -2.042241531   1.331972027  -0.796830014
  N   -2.336985696   0.081795187  -0.117414395
  C   -3.734111337  -0.041842074   0.261837543
  H    4.659114826   0.012794134  -0.280284648
  H    3.498128814   0.986605997  -1.208041820
  H    4.600587272   1.778772283  -0.054502178
  H    0.374366428  -1.751290202  -0.318292638
  H    1.470390666  -2.721013145   0.698969404
  H    1.679651156  -2.719742595  -1.074106102
  O    3.076956272   0.802767760   0.827395454
  C    2.196220440  -0.200174694   0.868130832
  O    1.394604332  -0.305680149   1.757698608
  O    2.322757702  -1.032795747  -0.170864652
  C    1.387693878  -2.131847742  -0.210751508
  C    4.014898832   0.888368626  -0.256426266
