23
charge=0 charge_a=0 charge_b=0 selection_a=1-10 selection_b=11-23 scaling=1.1 benchmark_Eint=-3.808 benchmark_unit=kcal/mol group=NH-O
  H   -3.173192027  -1.464950592  -1.510336852
  H   -3.282605353   0.256698889  -1.897320542
  H   -1.700609360  -0.504171773  -1.638966736
  H   -2.240288519   0.597795663   0.339857329
  H   -4.091942466   0.137270380   1.710866961
  H   -4.642899552  -1.070595995   0.553363130
  H   -4.735849994   0.643995306   0.136044443
  C   -2.734944518  -0.487910022  -1.299453914
  N   -2.776421966  -0.232984818   0.130126581
  C   -4.126340986  -0.114294221   0.651792414
  H   -0.191696513  -0.815049476   0.637449592
  H    3.947629036  -1.734821961  -0.069967382
  H    1.656047070  -2.465515108   0.520645850
  H    2.544074425   2.299460194  -0.417640111
  H    0.319281803   2.595384297  -0.007492375
  H    4.381584596   0.658342451  -0.538868854
  C    3.143750344  -1.015498105  -0.016882490
  C    1.855785536  -1.423307398   0.314966156
  C    0.814493236  -0.509374903   0.386833218
  C    1.071208079   0.831579525   0.120935624
  C    2.353582342   1.253238928  -0.212412819
  C    3.386337973   0.326050551  -0.279693530
  O    0.017047695   1.707224332   0.198812785
