16
charge=0 charge_a=0 charge_b=0 selection_a=1-10 selection_b=11-16 scaling=1.1 benchmark_Eint=-3.169 benchmark_unit=kcal/mol group=NH-O
  H    2.473788609   1.475428778  -0.228465480
  H    0.915270501   1.375011694  -1.054839553
  H    1.016624209   2.028774962   0.592240329
  H    0.285743325  -0.178810793   0.796489180
  H    1.454818685  -2.083163337   0.113412571
  H    2.745362481  -1.066578998  -0.524565978
  H    1.180694619  -1.108345656  -1.343830013
  C    1.413126773   1.266260678  -0.076820445
  N    1.249599452  -0.045222982   0.520341282
  C    1.668469684  -1.123602312  -0.354634492
  O   -2.091025294  -0.277142104   0.611904340
  H   -2.775398670   0.067854099   1.188847463
  C   -2.341190932   0.149543486  -0.723937845
  H   -1.539805282  -0.255064350  -1.336467410
  H   -2.328520232   1.238231262  -0.812992537
  H   -3.293385518  -0.231798063  -1.099362627
