20
charge=0 charge_a=0 charge_b=0 selection_a=1-10 selection_b=11-20 scaling=1.25 benchmark_Eint=-2.980 benchmark_unit=kcal/mol group=NH-O
  H   -3.772379435   0.360512576   0.462773268
  H   -3.137908367  -1.286051202   0.554114917
  H   -2.830858266  -0.131792698   1.867478198
  H   -0.889803167  -0.178560189   0.544678060
  H   -0.745232388   0.396166046  -1.696396523
  H   -2.482392819   0.706801586  -1.742163676
  H   -1.893942521  -0.953993264  -1.608033497
  C   -2.915174353  -0.232605951   0.786281065
  N   -1.708681574   0.263416287   0.149431163
  C   -1.706482844   0.084742526  -1.292309525
  H    3.270941094  -1.895774270  -0.318470454
  H    1.914225110  -2.629324722   0.578465971
  H    1.638329427  -1.942282433  -1.044560615
  H    2.324471940   2.409989960  -0.389055230
  H    2.636384422   1.692330636   1.213063242
  H    0.965878945   1.748889747   0.559143962
  C    2.200536408  -1.839955386  -0.114509392
  O    1.872730028  -0.638337995   0.549269935
  O    2.255200453   0.423605022  -0.381306040
  C    2.022115357   1.634394196   0.312786389
