20
charge=0 charge_a=0 charge_b=0 selection_a=1-10 selection_b=11-20 scaling=0.8 benchmark_Eint=-0.987 benchmark_unit=kcal/mol group=NH-O
  H   -3.772379435   0.360512576   0.462773268
  H   -3.137908367  -1.286051202   0.554114917
  H   -2.830858266  -0.131792698   1.867478198
  H   -0.889803167  -0.178560189   0.544678060
  H   -0.745232388   0.396166046  -1.696396523
  H   -2.482392819   0.706801586  -1.742163676
  H   -1.893942521  -0.953993264  -1.608033497
  C   -2.915174353  -0.232605951   0.786281065
  N   -1.708681574   0.263416287   0.149431163
  C   -1.706482844   0.084742526  -1.292309525
  H    2.276429144  -1.730254260  -0.320123529
  H    0.919713160  -2.463804712   0.576812896
  H    0.643817477  -1.776762423  -1.046213690
  H    1.329959990   2.575509970  -0.390708305
  H    1.641872472   1.857850646   1.211410167
  H   -0.028633005   1.914409757   0.557490887
  C    1.206024458  -1.674435376  -0.116162467
  O    0.878218078  -0.472817985   0.547616860
  O    1.260688503   0.589125032  -0.382959115
  C    1.027603407   1.799914206   0.311133314
