16
charge=0 charge_a=0 charge_b=0 selection_a=1-7 selection_b=8-16 scaling=0.8 benchmark_Eint=-1.652 benchmark_unit=kcal/mol group=NH-O
  N   -2.252647713   0.386835207  -0.396620701
  H   -1.471892960  -0.042014519  -0.882198683
  H   -3.001572486   0.509464359  -1.064471532
  C   -2.680710039  -0.465200773   0.710877752
  H   -3.494610801   0.015860954   1.253703084
  H   -3.014530599  -1.468202790   0.419302189
  H   -1.851823790  -0.586646005   1.408135952
  H    2.492738437   0.167669983   1.137150343
  H    2.174502257  -1.357299625   0.383522378
  H   -0.528637508   1.697901926   0.208638738
  H    1.055621784   1.974029089   0.986257774
  H    0.869349635   2.129204474  -0.766442619
  O    0.168668275  -0.588339688  -0.862188738
  C    0.843484277   0.106454470  -0.120772859
  N    1.923323314  -0.396316822   0.535958415
  C    0.547786394   1.570104782   0.112541159
