16
charge=0 charge_a=0 charge_b=0 selection_a=1-7 selection_b=8-16 scaling=0.9 benchmark_Eint=-4.635 benchmark_unit=kcal/mol group=NH-O
  N   -2.252647713   0.386835207  -0.396620701
  H   -1.471892960  -0.042014519  -0.882198683
  H   -3.001572486   0.509464359  -1.064471532
  C   -2.680710039  -0.465200773   0.710877752
  H   -3.494610801   0.015860954   1.253703084
  H   -3.014530599  -1.468202790   0.419302189
  H   -1.851823790  -0.586646005   1.408135952
  H    2.697808592   0.099379337   1.139651586
  H    2.379572412  -1.425590271   0.386023621
  H   -0.323567353   1.629611280   0.211139981
  H    1.260691939   1.905738443   0.988759017
  H    1.074419790   2.060913828  -0.763941376
  O    0.373738430  -0.656630334  -0.859687495
  C    1.048554432   0.038163824  -0.118271616
  N    2.128393469  -0.464607468   0.538459658
  C    0.752856549   1.501814136   0.115042402
