22
charge=0 charge_a=0 charge_b=0 selection_a=1-10 selection_b=11-22 scaling=0.8 benchmark_Eint=-1.818 benchmark_unit=kcal/mol group=NH-O
  H   -2.559910633   1.360134864  -1.757306418
  H   -2.344035882   2.224787673  -0.229326425
  H   -0.973044402   1.403337528  -0.992433504
  H   -1.741202867  -0.007338891   0.695728499
  H   -3.882837595  -0.962180482   0.824690389
  H   -4.355526262  -0.093723053  -0.633927924
  H   -4.101301859   0.797669092   0.871257837
  C   -2.042241531   1.331972027  -0.796830014
  N   -2.336985696   0.081795187  -0.117414395
  C   -3.734111337  -0.041842074   0.261837543
  H    3.195738133   0.152020054  -0.775870700
  H    2.034752121   1.125831917  -1.703627871
  H    3.137210579   1.917998203  -0.550088230
  H   -1.089010265  -1.612064282  -0.813878689
  H    0.007013972  -2.581787225   0.203383352
  H    0.216274463  -2.580516675  -1.569692154
  O    1.613579578   0.941993680   0.331809402
  C    0.732843747  -0.060948774   0.372544780
  O   -0.068772361  -0.166454229   1.262112557
  O    0.859381009  -0.893569827  -0.666450703
  C   -0.075682815  -1.992621822  -0.706337560
  C    2.551522138   1.027594546  -0.752012317
