22
charge=0 charge_a=0 charge_b=0 selection_a=1-10 selection_b=11-22 scaling=0.85 benchmark_Eint=-3.686 benchmark_unit=kcal/mol group=NH-O
  H   -2.559910633   1.360134864  -1.757306418
  H   -2.344035882   2.224787673  -0.229326425
  H   -0.973044402   1.403337528  -0.992433504
  H   -1.741202867  -0.007338891   0.695728499
  H   -3.882837595  -0.962180482   0.824690389
  H   -4.355526262  -0.093723053  -0.633927924
  H   -4.101301859   0.797669092   0.871257837
  C   -2.042241531   1.331972027  -0.796830014
  N   -2.336985696   0.081795187  -0.117414395
  C   -3.734111337  -0.041842074   0.261837543
  H    3.300265040   0.142075346  -0.740471696
  H    2.139279028   1.115887209  -1.668228867
  H    3.241737486   1.908053495  -0.514689226
  H   -0.984483358  -1.622008990  -0.778479685
  H    0.111540879  -2.591731933   0.238782356
  H    0.320801370  -2.590461383  -1.534293150
  O    1.718106485   0.932048972   0.367208406
  C    0.837370654  -0.070893482   0.407943784
  O    0.035754546  -0.176398937   1.297511561
  O    0.963907916  -0.903514535  -0.631051699
  C    0.028844092  -2.002566530  -0.670938556
  C    2.656049045   1.017649838  -0.716613313
