22
charge=0 charge_a=0 charge_b=0 selection_a=1-10 selection_b=11-22 scaling=0.95 benchmark_Eint=-5.212 benchmark_unit=kcal/mol group=NH-O
  H   -2.559910633   1.360134864  -1.757306418
  H   -2.344035882   2.224787673  -0.229326425
  H   -0.973044402   1.403337528  -0.992433504
  H   -1.741202867  -0.007338891   0.695728499
  H   -3.882837595  -0.962180482   0.824690389
  H   -4.355526262  -0.093723053  -0.633927924
  H   -4.101301859   0.797669092   0.871257837
  C   -2.042241531   1.331972027  -0.796830014
  N   -2.336985696   0.081795187  -0.117414395
  C   -3.734111337  -0.041842074   0.261837543
  H    3.509318853   0.122185929  -0.669673689
  H    2.348332841   1.095997792  -1.597430860
  H    3.450791299   1.888164078  -0.443891219
  H   -0.775429545  -1.641898407  -0.707681678
  H    0.320594692  -2.611621350   0.309580363
  H    0.529855183  -2.610350800  -1.463495143
  O    1.927160298   0.912159555   0.438006413
  C    1.046424467  -0.090782899   0.478741791
  O    0.244808359  -0.196288354   1.368309568
  O    1.172961729  -0.923403952  -0.560253692
  C    0.237897905  -2.022455947  -0.600140549
  C    2.865102858   0.997760421  -0.645815306
