16
charge=0 charge_a=0 charge_b=0 selection_a=1-10 selection_b=11-16 scaling=1.05 benchmark_Eint=-3.360 benchmark_unit=kcal/mol group=NH-O
  H    2.473788609   1.475428778  -0.228465480
  H    0.915270501   1.375011694  -1.054839553
  H    1.016624209   2.028774962   0.592240329
  H    0.285743325  -0.178810793   0.796489180
  H    1.454818685  -2.083163337   0.113412571
  H    2.745362481  -1.066578998  -0.524565978
  H    1.180694619  -1.108345656  -1.343830013
  C    1.413126773   1.266260678  -0.076820445
  N    1.249599452  -0.045222982   0.520341282
  C    1.668469684  -1.123602312  -0.354634492
  O   -1.982990357  -0.272672499   0.620294560
  H   -2.667363733   0.072323704   1.197237683
  C   -2.233155994   0.154013091  -0.715547625
  H   -1.431770345  -0.250594745  -1.328077190
  H   -2.220485294   1.242700867  -0.804602317
  H   -3.185350580  -0.227328458  -1.090972407
