20
charge=0 charge_a=0 charge_b=0 selection_a=1-10 selection_b=11-20 scaling=0.95 benchmark_Eint=-4.546 benchmark_unit=kcal/mol group=NH-O
  H    3.705623306   0.283213326   1.158151282
  H    3.343094878   1.507343383  -0.064450512
  H    2.448539574   1.478863209   1.467131194
  H    1.074297083   0.451166923  -0.131733280
  H    1.582444099  -1.478339629  -1.333638631
  H    3.170921301  -1.545414665  -0.571433210
  H    2.819642347  -0.281702278  -1.757279609
  C    2.894796828   0.850740158   0.697315987
  N    1.896233286  -0.059987929   0.166966683
  C    2.391890574  -0.870337530  -0.931052422
  H   -1.515214482  -2.047313323   0.330122458
  H   -0.166087519  -1.093876903   0.994512617
  H   -1.762402907  -1.131197710   1.800949371
  H   -3.396673501   1.052212082  -0.831012479
  H   -3.665250081  -0.671993907  -0.458184481
  C   -1.241910063  -1.121966891   0.842364000
  C   -1.694315501   0.052463157   0.009078189
  O   -0.908127085   0.802373729  -0.528091147
  C   -3.185552378   0.250861833  -0.129586384
  H   -3.611579544   0.497705063   0.844781537
