16
charge=0 charge_a=0 charge_b=0 selection_a=1-7 selection_b=8-16 scaling=1.5 benchmark_Eint=-2.352 benchmark_unit=kcal/mol group=NH-O
  N   -2.252647713   0.386835207  -0.396620701
  H   -1.471892960  -0.042014519  -0.882198683
  H   -3.001572486   0.509464359  -1.064471532
  C   -2.680710039  -0.465200773   0.710877752
  H   -3.494610801   0.015860954   1.253703084
  H   -3.014530599  -1.468202790   0.419302189
  H   -1.851823790  -0.586646005   1.408135952
  H    3.928229518  -0.310364540   1.154659044
  H    3.609993338  -1.835334148   0.401031080
  H    0.906853573   1.219867404   0.226147440
  H    2.491112865   1.495994566   1.003766476
  H    2.304840716   1.651169952  -0.748933918
  O    1.604159356  -1.066374210  -0.844680036
  C    2.278975358  -0.371580052  -0.103264158
  N    3.358814395  -0.874351344   0.553467116
  C    1.983277475   1.092070260   0.130049860
