20
charge=0 charge_a=0 charge_b=0 selection_a=1-10 selection_b=11-20 scaling=1.0 benchmark_Eint=-4.321 benchmark_unit=kcal/mol group=NH-O
  H   -3.772379435   0.360512576   0.462773268
  H   -3.137908367  -1.286051202   0.554114917
  H   -2.830858266  -0.131792698   1.867478198
  H   -0.889803167  -0.178560189   0.544678060
  H   -0.745232388   0.396166046  -1.696396523
  H   -2.482392819   0.706801586  -1.742163676
  H   -1.893942521  -0.953993264  -1.608033497
  C   -2.915174353  -0.232605951   0.786281065
  N   -1.708681574   0.263416287   0.149431163
  C   -1.706482844   0.084742526  -1.292309525
  H    2.718434455  -1.803818709  -0.319388829
  H    1.361718471  -2.537369161   0.577547596
  H    1.085822788  -1.850326872  -1.045478990
  H    1.771965301   2.501945521  -0.389973605
  H    2.083877783   1.784286197   1.212144867
  H    0.413372306   1.840845308   0.558225587
  C    1.648029769  -1.747999825  -0.115427767
  O    1.320223389  -0.546382434   0.548351560
  O    1.702693814   0.515560583  -0.382224415
  C    1.469608718   1.726349757   0.311868014
