16
charge=0 charge_a=0 charge_b=0 selection_a=1-10 selection_b=11-16 scaling=1.0 benchmark_Eint=-3.445 benchmark_unit=kcal/mol group=NH-O
  H    2.473788609   1.475428778  -0.228465480
  H    0.915270501   1.375011694  -1.054839553
  H    1.016624209   2.028774962   0.592240329
  H    0.285743325  -0.178810793   0.796489180
  H    1.454818685  -2.083163337   0.113412571
  H    2.745362481  -1.066578998  -0.524565978
  H    1.180694619  -1.108345656  -1.343830013
  C    1.413126773   1.266260678  -0.076820445
  N    1.249599452  -0.045222982   0.520341282
  C    1.668469684  -1.123602312  -0.354634492
  O   -1.874955420  -0.268202894   0.628684780
  H   -2.559328796   0.076793309   1.205627903
  C   -2.125121057   0.158482696  -0.707157405
  H   -1.323735408  -0.246125140  -1.319686970
  H   -2.112450357   1.247170472  -0.796212097
  H   -3.077315643  -0.222858853  -1.082582187
