20
charge=0 charge_a=0 charge_b=0 selection_a=1-10 selection_b=11-20 scaling=1.1 benchmark_Eint=-3.951 benchmark_unit=kcal/mol group=NH-O
  H   -3.772379435   0.360512576   0.462773268
  H   -3.137908367  -1.286051202   0.554114917
  H   -2.830858266  -0.131792698   1.867478198
  H   -0.889803167  -0.178560189   0.544678060
  H   -0.745232388   0.396166046  -1.696396523
  H   -2.482392819   0.706801586  -1.742163676
  H   -1.893942521  -0.953993264  -1.608033497
  C   -2.915174353  -0.232605951   0.786281065
  N   -1.708681574   0.263416287   0.149431163
  C   -1.706482844   0.084742526  -1.292309525
  H    2.939437111  -1.840600934  -0.319021479
  H    1.582721127  -2.574151386   0.577914946
  H    1.306825444  -1.887109096  -1.045111640
  H    1.992967957   2.465163296  -0.389606255
  H    2.304880439   1.747503972   1.212512217
  H    0.634374962   1.804063084   0.558592937
  C    1.869032425  -1.784782050  -0.115060417
  O    1.541226045  -0.583164658   0.548718910
  O    1.923696470   0.478778358  -0.381857065
  C    1.690611374   1.689567532   0.312235364
