21
charge=0 charge_a=0 charge_b=0 selection_a=1-10 selection_b=11-21 scaling=1.05 benchmark_Eint=-4.762 benchmark_unit=kcal/mol group=NH-O
  H    4.102697325   0.415513984   0.194660523
  H    3.685360799  -0.927348081  -0.876718983
  H    3.432389894   0.748784680  -1.400329333
  H    1.347296373  -0.062832751  -0.691386348
  H    0.832719618  -0.784044250   1.473581313
  H    2.510455184  -0.546566840   1.949246330
  H    2.091722499  -1.865369861   0.847898991
  C    3.376473884   0.075995911  -0.545938390
  N    2.040564548   0.116045595   0.023577786
  C    1.861343483  -0.823295472   1.116696996
  H    0.027459582   1.683383004   0.296062725
  H   -1.347623662   2.681089275   0.860445659
  H   -1.209671444   2.223930392  -0.859234792
  H   -2.466853286  -2.275155625  -0.559678404
  C   -1.665938120  -0.320890623  -0.295903246
  O   -1.834823820   0.757864893   0.481535280
  C   -1.028321864   1.911284699   0.166549692
  C   -2.551351930  -1.453973805   0.143457053
  O   -0.891171464  -0.365734344  -1.220746643
  H   -2.247912556  -1.788073633   1.135234801
  H   -3.585050182  -1.121151071   0.214441204
