22
charge=0 charge_a=0 charge_b=0 selection_a=1-10 selection_b=11-22 scaling=1.1 benchmark_Eint=-4.999 benchmark_unit=kcal/mol group=NH-O
  H   -2.559910633   1.360134864  -1.757306418
  H   -2.344035882   2.224787673  -0.229326425
  H   -0.973044402   1.403337528  -0.992433504
  H   -1.741202867  -0.007338891   0.695728499
  H   -3.882837595  -0.962180482   0.824690389
  H   -4.355526262  -0.093723053  -0.633927924
  H   -4.101301859   0.797669092   0.871257837
  C   -2.042241531   1.331972027  -0.796830014
  N   -2.336985696   0.081795187  -0.117414395
  C   -3.734111337  -0.041842074   0.261837543
  H    3.822899573   0.092351803  -0.563476678
  H    2.661913561   1.066163666  -1.491233849
  H    3.764372019   1.858329952  -0.337694208
  H   -0.461848825  -1.671732533  -0.601484667
  H    0.634175412  -2.641455476   0.415777374
  H    0.843435903  -2.640184926  -1.357298132
  O    2.240741018   0.882325429   0.544203424
  C    1.360005187  -0.120617025   0.584938802
  O    0.558389079  -0.226122480   1.474506579
  O    1.486542449  -0.953238078  -0.454056681
  C    0.551478625  -2.052290073  -0.493943538
  C    3.178683578   0.967926295  -0.539618295
