14
charge=0 charge_a=0 charge_b=0 selection_a=1-7 selection_b=8-14 scaling=2.0 benchmark_Eint=-0.663 benchmark_unit=kcal/mol group=NH-O
  N   -1.738257590  -0.036342273  -0.699663151
  H   -0.969151528   0.623244535  -0.709253901
  H   -2.412123860   0.266661278  -1.389648823
  C   -2.343321657  -0.084029552   0.630262989
  H   -3.147801398  -0.819221818   0.641315593
  H   -2.750634222   0.869215527   0.986797531
  H   -1.594673646  -0.411287084   1.351770086
  H    4.184699227  -1.184521465  -0.070919227
  H    3.601215646  -1.277399558   1.574517234
  H    2.469625764  -0.796832069   0.270746187
  H    4.929729892   0.846965199   1.228406244
  C    3.490844919  -0.725628396   0.637613382
  C    3.893967558   0.698561520   0.861659178
  O    3.186196352   1.656951545   0.675234203
