16
charge=0 charge_a=0 charge_b=0 selection_a=1-10 selection_b=11-16 scaling=2.0 benchmark_Eint=-0.465 benchmark_unit=kcal/mol group=NH-O
  H    2.473788609   1.475428778  -0.228465480
  H    0.915270501   1.375011694  -1.054839553
  H    1.016624209   2.028774962   0.592240329
  H    0.285743325  -0.178810793   0.796489180
  H    1.454818685  -2.083163337   0.113412571
  H    2.745362481  -1.066578998  -0.524565978
  H    1.180694619  -1.108345656  -1.343830013
  C    1.413126773   1.266260678  -0.076820445
  N    1.249599452  -0.045222982   0.520341282
  C    1.668469684  -1.123602312  -0.354634492
  O   -4.035654165  -0.357594995   0.460880380
  H   -4.720027541  -0.012598792   1.037823503
  C   -4.285819802   0.069090595  -0.874961805
  H   -3.484434153  -0.335517241  -1.487491370
  H   -4.273149102   1.157778371  -0.964016497
  H   -5.238014388  -0.312250954  -1.250386587
