16
charge=0 charge_a=0 charge_b=0 selection_a=1-7 selection_b=8-16 scaling=1.1 benchmark_Eint=-4.939 benchmark_unit=kcal/mol group=NH-O
  N   -2.252647713   0.386835207  -0.396620701
  H   -1.471892960  -0.042014519  -0.882198683
  H   -3.001572486   0.509464359  -1.064471532
  C   -2.680710039  -0.465200773   0.710877752
  H   -3.494610801   0.015860954   1.253703084
  H   -3.014530599  -1.468202790   0.419302189
  H   -1.851823790  -0.586646005   1.408135952
  H    3.107948900  -0.037201955   1.144654072
  H    2.789712720  -1.562171563   0.391026107
  H    0.086572955   1.493029988   0.216142467
  H    1.670832247   1.769157151   0.993761503
  H    1.484560098   1.924332536  -0.758938890
  O    0.783878738  -0.793211626  -0.854685009
  C    1.458694740  -0.098417468  -0.113269130
  N    2.538533777  -0.601188760   0.543462144
  C    1.162996857   1.365232844   0.120044888
