20
charge=0 charge_a=0 charge_b=0 selection_a=1-10 selection_b=11-20 scaling=0.85 benchmark_Eint=-2.982 benchmark_unit=kcal/mol group=NH-O
  H    3.705623306   0.283213326   1.158151282
  H    3.343094878   1.507343383  -0.064450512
  H    2.448539574   1.478863209   1.467131194
  H    1.074297083   0.451166923  -0.131733280
  H    1.582444099  -1.478339629  -1.333638631
  H    3.170921301  -1.545414665  -0.571433210
  H    2.819642347  -0.281702278  -1.757279609
  C    2.894796828   0.850740158   0.697315987
  N    1.896233286  -0.059987929   0.166966683
  C    2.391890574  -0.870337530  -0.931052422
  H   -1.306538254  -2.084282460   0.371844339
  H    0.042588709  -1.130846040   1.036234498
  H   -1.553726679  -1.168166847   1.842671252
  H   -3.187997273   1.015242945  -0.789290598
  H   -3.456573853  -0.708963044  -0.416462600
  C   -1.033233835  -1.158936028   0.884085881
  C   -1.485639273   0.015494020   0.050800070
  O   -0.699450857   0.765404592  -0.486369266
  C   -2.976876150   0.213892696  -0.087864503
  H   -3.402903316   0.460735926   0.886503418
