20
charge=0 charge_a=0 charge_b=0 selection_a=1-10 selection_b=11-20 scaling=1.5 benchmark_Eint=-2.123 benchmark_unit=kcal/mol group=NH-O
  H    3.705623306   0.283213326   1.158151282
  H    3.343094878   1.507343383  -0.064450512
  H    2.448539574   1.478863209   1.467131194
  H    1.074297083   0.451166923  -0.131733280
  H    1.582444099  -1.478339629  -1.333638631
  H    3.170921301  -1.545414665  -0.571433210
  H    2.819642347  -0.281702278  -1.757279609
  C    2.894796828   0.850740158   0.697315987
  N    1.896233286  -0.059987929   0.166966683
  C    2.391890574  -0.870337530  -0.931052422
  H   -2.662933737  -1.843983066   0.100652114
  H   -1.313806774  -0.890546646   0.765042274
  H   -2.910122162  -0.927867454   1.571479028
  H   -4.544392756   1.255542338  -1.060482822
  H   -4.812969336  -0.468663650  -0.687654824
  C   -2.389629318  -0.918636634   0.612893656
  C   -2.842034756   0.255793414  -0.220392154
  O   -2.055846340   1.005703986  -0.757561490
  C   -4.333271633   0.454192090  -0.359056728
  H   -4.759298799   0.701035320   0.615311194
