19
charge=0 charge_a=0 charge_b=0 selection_a=1-10 selection_b=11-19 scaling=1.0 benchmark_Eint=-3.668 benchmark_unit=kcal/mol group=NH-O
  H    2.608203904   1.497244723  -0.867575466
  H    1.231655844   0.670877871  -1.604787738
  H    0.972697359   2.035396964  -0.498590308
  H    0.604392971   0.085748211   0.731006230
  H    2.184302947  -1.589158379   1.154618280
  H    3.355540482  -0.738306657   0.151063733
  H    1.962281622  -1.519139286  -0.605419456
  C    1.588503033   1.155520500  -0.680763069
  N    1.563895883   0.288378657   0.481857338
  C    2.292461515  -0.950208525   0.279425410
  H   -2.177533018   1.442931717   1.244766908
  H   -3.301494169   0.704711837   0.080828761
  H   -1.835817211   1.530619971  -0.498330816
  H   -0.932146139  -1.967233126  -0.533636297
  H   -2.542469575  -1.375836258  -1.002528840
  H   -1.081989695  -0.534549870  -1.574293952
  C   -2.248055532   0.906603662   0.302111163
  O   -1.516802075  -0.293597768   0.443135134
  C   -1.524097988  -1.077537651  -0.732191664
