23
charge=0 charge_a=0 charge_b=0 selection_a=1-10 selection_b=11-23 scaling=1.5 benchmark_Eint=-1.634 benchmark_unit=kcal/mol group=NH-O
  H   -3.173192027  -1.464950592  -1.510336852
  H   -3.282605353   0.256698889  -1.897320542
  H   -1.700609360  -0.504171773  -1.638966736
  H   -2.240288519   0.597795663   0.339857329
  H   -4.091942466   0.137270380   1.710866961
  H   -4.642899552  -1.070595995   0.553363130
  H   -4.735849994   0.643995306   0.136044443
  C   -2.734944518  -0.487910022  -1.299453914
  N   -2.776421966  -0.232984818   0.130126581
  C   -4.126340986  -0.114294221   0.651792414
  H    0.629153020  -0.411620870   0.586160666
  H    4.768478568  -1.331393354  -0.121256308
  H    2.476896602  -2.062086502   0.469356924
  H    3.364923958   2.702888800  -0.468929036
  H    1.140131336   2.998812904  -0.058781300
  H    5.202434128   1.061771058  -0.590157780
  C    3.964599876  -0.612069498  -0.068171416
  C    2.676635068  -1.019878792   0.263677230
  C    1.635342768  -0.105946296   0.335544292
  C    1.892057612   1.235008132   0.069646698
  C    3.174431874   1.656667534  -0.263701744
  C    4.207187506   0.729479158  -0.330982456
  O    0.837897228   2.110652938   0.147523860
