22
charge=0 charge_a=0 charge_b=0 selection_a=1-10 selection_b=11-22 scaling=0.85 benchmark_Eint=-4.037 benchmark_unit=kcal/mol group=NH-O
  H    4.084607323  -0.334849066  -0.068523115
  H    3.535931758   1.056511217   0.874375410
  H    3.333049880  -0.588819879   1.505124882
  H    1.257739141   0.063265974   0.619467569
  H    0.837659167   0.609201945  -1.605318439
  H    2.547632292   0.414426740  -1.982899241
  H    2.018044469   1.785500471  -0.999190996
  C    3.297130147   0.016997804   0.600876381
  N    2.002426960  -0.133528576  -0.038937117
  C    1.844909107   0.717630668  -1.204243715
  C   -2.166040782   1.389523904  -0.283541353
  H   -1.547111029   2.219155063  -0.620695150
  H   -2.851984828   1.110382951  -1.081128431
  H   -2.737804351   1.735424023   0.575287793
  C   -1.259864825   0.261750310   0.160408088
  O   -0.452051048   0.408720134   1.067374777
  N   -1.391151129  -0.907966157  -0.506336683
  H   -2.076111893  -0.973094084  -1.235561386
  C   -0.595595115  -2.081966008  -0.179196022
  H    0.463630990  -1.896442505  -0.351973801
  H   -0.927131673  -2.908130549  -0.802194379
  H   -0.728852590  -2.349882089   0.868100277
