20
charge=0 charge_a=0 charge_b=0 selection_a=1-10 selection_b=11-20 scaling=1.25 benchmark_Eint=-3.531 benchmark_unit=kcal/mol group=NH-O
  H    3.705623306   0.283213326   1.158151282
  H    3.343094878   1.507343383  -0.064450512
  H    2.448539574   1.478863209   1.467131194
  H    1.074297083   0.451166923  -0.131733280
  H    1.582444099  -1.478339629  -1.333638631
  H    3.170921301  -1.545414665  -0.571433210
  H    2.819642347  -0.281702278  -1.757279609
  C    2.894796828   0.850740158   0.697315987
  N    1.896233286  -0.059987929   0.166966683
  C    2.391890574  -0.870337530  -0.931052422
  H   -2.141243166  -1.936405910   0.204956816
  H   -0.792116204  -0.982969490   0.869346975
  H   -2.388431592  -1.020290297   1.675783729
  H   -4.022702186   1.163119495  -0.956178121
  H   -4.291278766  -0.561086494  -0.583350123
  C   -1.867938748  -1.011059478   0.717198358
  C   -2.320344186   0.163370570  -0.116087453
  O   -1.534155770   0.913281142  -0.653256789
  C   -3.811581062   0.361769246  -0.254752026
  H   -4.237608228   0.608612476   0.719615895
