19
charge=0 charge_a=0 charge_b=0 selection_a=1-10 selection_b=11-19 scaling=2.0 benchmark_Eint=-0.456 benchmark_unit=kcal/mol group=NH-O
  H    2.608203904   1.497244723  -0.867575466
  H    1.231655844   0.670877871  -1.604787738
  H    0.972697359   2.035396964  -0.498590308
  H    0.604392971   0.085748211   0.731006230
  H    2.184302947  -1.589158379   1.154618280
  H    3.355540482  -0.738306657   0.151063733
  H    1.962281622  -1.519139286  -0.605419456
  C    1.588503033   1.155520500  -0.680763069
  N    1.563895883   0.288378657   0.481857338
  C    2.292461515  -0.950208525   0.279425410
  H   -4.298728064   1.063585738   0.956895812
  H   -5.422689215   0.325365858  -0.207042335
  H   -3.957012257   1.151273992  -0.786201912
  H   -3.053341185  -2.346579105  -0.821507393
  H   -4.663664621  -1.755182237  -1.290399936
  H   -3.203184741  -0.913895849  -1.862165048
  C   -4.369250578   0.527257683   0.014240067
  O   -3.637997121  -0.672943747   0.155264038
  C   -3.645293034  -1.456883630  -1.020062760
