16
charge=0 charge_a=0 charge_b=0 selection_a=1-7 selection_b=8-16 scaling=0.95 benchmark_Eint=-5.140 benchmark_unit=kcal/mol group=NH-O
  N   -2.252647713   0.386835207  -0.396620701
  H   -1.471892960  -0.042014519  -0.882198683
  H   -3.001572486   0.509464359  -1.064471532
  C   -2.680710039  -0.465200773   0.710877752
  H   -3.494610801   0.015860954   1.253703084
  H   -3.014530599  -1.468202790   0.419302189
  H   -1.851823790  -0.586646005   1.408135952
  H    2.800343669   0.065234014   1.140902207
  H    2.482107489  -1.459735594   0.387274242
  H   -0.221032276   1.595465957   0.212390602
  H    1.363227016   1.871593120   0.990009638
  H    1.176954867   2.026768505  -0.762690755
  O    0.476273507  -0.690775657  -0.858436874
  C    1.151089509   0.004018501  -0.117020995
  N    2.230928546  -0.498752791   0.539710279
  C    0.855391626   1.467668813   0.116293023
