14
charge=0 charge_a=0 charge_b=0 selection_a=1-7 selection_b=8-14 scaling=1.5 benchmark_Eint=-1.861 benchmark_unit=kcal/mol group=NH-O
  N   -1.738257590  -0.036342273  -0.699663151
  H   -0.969151528   0.623244535  -0.709253901
  H   -2.412123860   0.266661278  -1.389648823
  C   -2.343321657  -0.084029552   0.630262989
  H   -3.147801398  -0.819221818   0.641315593
  H   -2.750634222   0.869215527   0.986797531
  H   -1.594673646  -0.411287084   1.351770086
  H    3.145862257  -1.442948218  -0.417041253
  H    2.562378676  -1.535826310   1.228395208
  H    1.430788794  -1.055258822  -0.075375839
  H    3.890892922   0.588538446   0.882284218
  C    2.452007949  -0.984055148   0.291491356
  C    2.855130588   0.440134768   0.515537152
  O    2.147359382   1.398524792   0.329112177
