23
charge=0 charge_a=0 charge_b=0 selection_a=1-10 selection_b=11-23 scaling=0.85 benchmark_Eint=-2.739 benchmark_unit=kcal/mol group=NH-O
  H   -3.173192027  -1.464950592  -1.510336852
  H   -3.282605353   0.256698889  -1.897320542
  H   -1.700609360  -0.504171773  -1.638966736
  H   -2.240288519   0.597795663   0.339857329
  H   -4.091942466   0.137270380   1.710866961
  H   -4.642899552  -1.070595995   0.553363130
  H   -4.735849994   0.643995306   0.136044443
  C   -2.734944518  -0.487910022  -1.299453914
  N   -2.776421966  -0.232984818   0.130126581
  C   -4.126340986  -0.114294221   0.651792414
  H   -0.704727471  -1.067192356   0.669505170
  H    3.434598078  -1.986964841  -0.037911804
  H    1.143016112  -2.717657988   0.552701428
  H    2.031043467   2.047317314  -0.385584533
  H   -0.193749155   2.343241417   0.024563203
  H    3.868553638   0.406199571  -0.506813276
  C    2.630719386  -1.267640985   0.015173088
  C    1.342754578  -1.675450278   0.347021734
  C    0.301462278  -0.761517783   0.418888796
  C    0.558177121   0.579436645   0.152991202
  C    1.840551384   1.001096048  -0.180357241
  C    2.873307015   0.073907671  -0.247637952
  O   -0.495983263   1.455081452   0.230868363
