24
charge=0 charge_a=0 charge_b=0 selection_a=1-12 selection_b=13-24 scaling=0.8 benchmark_Eint=-3.020 benchmark_unit=kcal/mol group=NH-O
  C    2.111617965  -1.664266552   0.499321642
  H    1.029511422  -1.560383034   0.478189992
  H    2.413530282  -2.459632263  -0.179401922
  H    2.426282235  -1.953329375   1.501399451
  C    2.844149709  -0.394779529   0.111421223
  O    4.059442316  -0.367985922  -0.020989261
  N    2.069156042   0.698591776  -0.068116408
  H    1.069655470   0.639435771   0.051753317
  C    2.649205632   1.977443834  -0.421044775
  H    3.357538166   2.310491927   0.337679123
  H    1.849157811   2.707743919  -0.508745346
  H    3.185906791   1.917171090  -1.367929849
  H   -2.769310415  -2.264254660   0.454331790
  H   -2.730319557  -1.951759646  -1.296556613
  H   -1.622867774  -3.150872399  -0.582333960
  H   -2.674779632   2.277891233  -0.533495240
  H   -2.704830713   1.965489727   1.213296664
  H   -4.159580428   1.639912051   0.228269593
  O   -1.083007641  -1.243394795  -0.230025548
  C   -1.379223565   0.033735221  -0.007365453
  O   -0.526329855   0.867448077   0.160005872
  O   -2.694640998   0.268579849   0.008331466
  C   -3.075711075   1.636326299   0.246474345
  C   -2.133300559  -2.207340277  -0.425123094
