16
charge=0 charge_a=0 charge_b=0 selection_a=1-7 selection_b=8-16 scaling=1.0 benchmark_Eint=-3.652 benchmark_unit=kcal/mol group=NH-O
  N   -1.924102404  -0.484806007   0.513383399
  H   -0.979899356  -0.369296403   0.861046291
  H   -2.557039828  -0.350397193   1.289921033
  C   -2.188494797   0.484902339  -0.546053857
  H   -3.202712713   0.351914201  -0.922219708
  H   -2.074024980   1.536661280  -0.253811067
  H   -1.510932686   0.298701945  -1.379492268
  H    1.352562785   1.882474880   0.826612095
  H    2.659621487   1.183465351  -0.155249571
  H    1.060499407   1.474809617  -0.879183267
  H    1.004609447  -2.042818511  -0.075105888
  H    2.463707841  -1.221318433  -0.682727255
  H    0.878464609  -0.898962487  -1.426051274
  C    1.581085848   1.172192524   0.036021731
  O    1.152292689  -0.099763692   0.472206408
  C    1.392270887  -1.113677286  -0.483031042
