19
charge=0 charge_a=0 charge_b=0 selection_a=1-7 selection_b=8-19 scaling=2.0 benchmark_Eint=-0.807 benchmark_unit=kcal/mol group=NH-O
  N    2.784541508   0.103314361  -0.094698501
  H    2.172857809  -0.019124213  -0.892716447
  H    3.729556178   0.182788472  -0.444855678
  C    2.407637104   1.303876314   0.650204116
  H    3.077511932   1.431160073   1.500190734
  H    2.418277651   2.231242599   0.066674136
  H    1.401704987   1.178650296   1.051307145
  H   -4.023923858   0.898287252   1.049479510
  H   -5.251477948  -0.104908862   0.247258811
  H   -5.213737775   1.652572999  -0.040656042
  H   -2.153831242  -2.874404744  -0.894264067
  H   -0.979738511  -1.886570486   0.009716101
  H   -2.228266694  -2.823073068   0.888861472
  O   -3.761193969   0.646868319  -1.005103619
  C   -2.884748056  -0.357821779  -1.081174181
  O   -2.151733825  -0.491973673  -2.024005821
  O   -2.931989948  -1.158099142  -0.009950780
  C   -2.000411149  -2.260965512  -0.010203519
  C   -4.612578553   0.768844444   0.144461320
