19
charge=0 charge_a=0 charge_b=0 selection_a=1-7 selection_b=8-19 scaling=0.85 benchmark_Eint=-3.595 benchmark_unit=kcal/mol group=NH-O
  N    2.784541508   0.103314361  -0.094698501
  H    2.172857809  -0.019124213  -0.892716447
  H    3.729556178   0.182788472  -0.444855678
  C    2.407637104   1.303876314   0.650204116
  H    3.077511932   1.431160073   1.500190734
  H    2.418277651   2.231242599   0.066674136
  H    1.401704987   1.178650296   1.051307145
  H   -1.537283668   1.170175692   1.699970900
  H   -2.764837758   0.166979578   0.897750201
  H   -2.727097585   1.924461438   0.609835348
  H    0.332808948  -2.602516304  -0.243772677
  H    1.506901679  -1.614682046   0.660207491
  H    0.258373496  -2.551184628   1.539352862
  O   -1.274553779   0.918756758  -0.354612229
  C   -0.398107866  -0.085933340  -0.430682791
  O    0.334906365  -0.220085234  -1.373514431
  O   -0.445349758  -0.886210702   0.640540610
  C    0.486229041  -1.989077072   0.640287871
  C   -2.125938363   1.040732884   0.794952710
