17
charge=0 charge_a=0 charge_b=0 selection_a=1-7 selection_b=8-17 scaling=2.0 benchmark_Eint=-0.715 benchmark_unit=kcal/mol group=NH-O
  N   -2.320449217  -0.046031921  -0.642205280
  H   -1.489900949  -0.627053754  -0.660175145
  H   -2.995379544  -0.452662257  -1.275481699
  C   -2.857689061   0.020658642   0.715171772
  H   -3.730123742   0.673846404   0.734336621
  H   -3.148625650  -0.945117009   1.145268626
  H   -2.109018004   0.460614784   1.374159785
  H    2.949523006   1.445009135   1.326925998
  H    1.862636457   0.948128093   0.007147023
  H    3.518506256   1.535273861  -0.325697702
  H    5.147639897  -1.639270994   0.952930814
  H    5.174858639   0.006746493   1.641180762
  C    2.892765921   0.953893658   0.352806936
  C    3.422681956  -0.453845099   0.480514461
  O    2.708969735  -1.425197740   0.356496745
  C    4.897474406  -0.597607595   0.776546760
  H    5.476508011  -0.221976783  -0.069288656
