20
charge=0 charge_a=0 charge_b=0 selection_a=1-12 selection_b=13-20 scaling=1.5 benchmark_Eint=-3.187 benchmark_unit=kcal/mol group=NH-O
  C   -1.312473621  -1.734544953  -0.553807954
  H   -1.188863631  -2.397243221   0.301837179
  H   -0.341274702  -1.537594689  -1.002325030
  H   -1.943939272  -2.249756574  -1.274642978
  C   -2.027005581  -0.477572569  -0.096377960
  O   -3.159703145  -0.510449254   0.358942069
  N   -1.322917246   0.673142699  -0.215163239
  H   -0.389219499   0.650675808  -0.596443785
  C   -1.894846471   1.945614944   0.175849872
  H   -2.757353024   2.198480299  -0.441151649
  H   -2.228773834   1.918586328   1.212458438
  H   -1.138143937   2.717453737   0.061820510
  H    4.868358419   0.141512388  -1.136164017
  H    3.408635735  -0.073624488   2.007534315
  H    1.759430760  -0.231581658   1.338916627
  H    2.907166255  -1.583895053   1.267223102
  O    2.608657953   0.409460928  -1.016409375
  C    3.293495876  -0.030764545  -0.123704927
  O    4.627279633  -0.163125003  -0.249915940
  C    2.801931213  -0.500423203   1.211815901
