20
charge=0 charge_a=0 charge_b=0 selection_a=1-12 selection_b=13-20 scaling=1.1 benchmark_Eint=-6.135 benchmark_unit=kcal/mol group=NH-O
  C   -1.312473621  -1.734544953  -0.553807954
  H   -1.188863631  -2.397243221   0.301837179
  H   -0.341274702  -1.537594689  -1.002325030
  H   -1.943939272  -2.249756574  -1.274642978
  C   -2.027005581  -0.477572569  -0.096377960
  O   -3.159703145  -0.510449254   0.358942069
  N   -1.322917246   0.673142699  -0.215163239
  H   -0.389219499   0.650675808  -0.596443785
  C   -1.894846471   1.945614944   0.175849872
  H   -2.757353024   2.198480299  -0.441151649
  H   -2.228773834   1.918586328   1.212458438
  H   -1.138143937   2.717453737   0.061820510
  H    4.068924432   0.205836356  -1.024173193
  H    2.609201748  -0.009300520   2.119525139
  H    0.959996773  -0.167257690   1.450907451
  H    2.107732268  -1.519571085   1.379213926
  O    1.809223966   0.473784896  -0.904418551
  C    2.494061889   0.033559423  -0.011714103
  O    3.827845646  -0.098801035  -0.137925116
  C    2.002497226  -0.436099235   1.323806725
