17
charge=0 charge_a=0 charge_b=0 selection_a=1-7 selection_b=8-17 scaling=1.1 benchmark_Eint=-3.727 benchmark_unit=kcal/mol group=NH-O
  N    2.089797222  -0.114383308  -0.691561125
  H    1.203225172   0.251170644  -1.014369894
  H    2.813189158   0.249569404  -1.296575623
  C    2.320399586   0.276944512   0.698485013
  H    3.246507355  -0.172481754   1.056303175
  H    2.385037144   1.359011715   0.868650288
  H    1.507976249  -0.107421659   1.312766089
  H   -2.594028293   1.680964884   0.518964813
  H   -1.494512948   2.433603300  -0.667502181
  H   -0.874280144   1.940437103   0.930774187
  H   -1.220873838  -2.497762978   0.781874586
  H   -1.882484199  -1.973913832  -0.788631410
  H   -0.124881527  -1.828384082  -0.456435084
  C   -1.574687058   1.696521318   0.129784007
  O   -1.244741237   0.466844332  -0.478329147
  O   -1.349460630  -0.523421664   0.593063261
  C   -1.125933027  -1.775401180  -0.027336883
