24
charge=0 charge_a=0 charge_b=0 selection_a=1-12 selection_b=13-24 scaling=2.0 benchmark_Eint=-1.931 benchmark_unit=kcal/mol group=NH-O
  C    2.111617965  -1.664266552   0.499321642
  H    1.029511422  -1.560383034   0.478189992
  H    2.413530282  -2.459632263  -0.179401922
  H    2.426282235  -1.953329375   1.501399451
  C    2.844149709  -0.394779529   0.111421223
  O    4.059442316  -0.367985922  -0.020989261
  N    2.069156042   0.698591776  -0.068116408
  H    1.069655470   0.639435771   0.051753317
  C    2.649205632   1.977443834  -0.421044775
  H    3.357538166   2.310491927   0.337679123
  H    1.849157811   2.707743919  -0.508745346
  H    3.185906791   1.917171090  -1.367929849
  H   -5.163288402  -1.922236202   0.616710623
  H   -5.124297544  -1.609741188  -1.134177780
  H   -4.016845761  -2.808853941  -0.419955127
  H   -5.068757619   2.619909691  -0.371116407
  H   -5.098808700   2.307508185   1.375675497
  H   -6.553558415   1.981930509   0.390648426
  O   -3.476985628  -0.901376337  -0.067646715
  C   -3.773201552   0.375753679   0.155013380
  O   -2.920307842   1.209466535   0.322384705
  O   -5.088618985   0.610598307   0.170710299
  C   -5.469689062   1.978344757   0.408853178
  C   -4.527278546  -1.865321819  -0.262744261
