17
charge=0 charge_a=0 charge_b=0 selection_a=1-7 selection_b=8-17 scaling=0.95 benchmark_Eint=-4.020 benchmark_unit=kcal/mol group=NH-O
  N    2.089797222  -0.114383308  -0.691561125
  H    1.203225172   0.251170644  -1.014369894
  H    2.813189158   0.249569404  -1.296575623
  C    2.320399586   0.276944512   0.698485013
  H    3.246507355  -0.172481754   1.056303175
  H    2.385037144   1.359011715   0.868650288
  H    1.507976249  -0.107421659   1.312766089
  H   -2.260214692   1.651554836   0.445868348
  H   -1.160699347   2.404193252  -0.740598646
  H   -0.540466543   1.911027055   0.857677722
  H   -0.887060237  -2.527173026   0.708778120
  H   -1.548670598  -2.003323880  -0.861727876
  H    0.208932074  -1.857794130  -0.529531550
  C   -1.240873457   1.667111270   0.056687542
  O   -0.910927636   0.437434284  -0.551425612
  O   -1.015647029  -0.552831712   0.519966796
  C   -0.792119426  -1.804811228  -0.100433348
