17
charge=0 charge_a=0 charge_b=0 selection_a=1-7 selection_b=8-17 scaling=0.8 benchmark_Eint=-0.847 benchmark_unit=kcal/mol group=NH-O
  N    2.089797222  -0.114383308  -0.691561125
  H    1.203225172   0.251170644  -1.014369894
  H    2.813189158   0.249569404  -1.296575623
  C    2.320399586   0.276944512   0.698485013
  H    3.246507355  -0.172481754   1.056303175
  H    2.385037144   1.359011715   0.868650288
  H    1.507976249  -0.107421659   1.312766089
  H   -1.926401090   1.622144787   0.372771882
  H   -0.826885745   2.374783203  -0.813695112
  H   -0.206652941   1.881617006   0.784581256
  H   -0.553246635  -2.556583075   0.635681655
  H   -1.214856996  -2.032733929  -0.934824341
  H    0.542745676  -1.887204179  -0.602628015
  C   -0.907059855   1.637701221  -0.016408924
  O   -0.577114034   0.408024235  -0.624522078
  O   -0.681833427  -0.582241761   0.446870330
  C   -0.458305824  -1.834221277  -0.173529814
