21
charge=0 charge_a=0 charge_b=0 selection_a=1-12 selection_b=13-21 scaling=0.9 benchmark_Eint=-7.544 benchmark_unit=kcal/mol group=NH-O
  C    1.384484784  -1.719712467   0.589438586
  H    0.397598778  -1.568280033   1.021127197
  H    1.316145491  -2.418352237  -0.243584041
  H    2.038759914  -2.167506719   1.334909105
  C    2.022162905  -0.434719979   0.096354238
  O    3.154230787  -0.414584469  -0.364848379
  N    1.254449587   0.673519781   0.198295167
  H    0.313204867   0.601065567   0.563201472
  C    1.747032381   1.966246047  -0.229317473
  H    2.034320616   1.949672384  -1.280868813
  H    2.624771301   2.263009513   0.344916034
  H    0.961176450   2.702846224  -0.083169955
  H   -4.091279973  -0.260940780  -0.649595589
  H   -3.885440970   0.463075296   0.908723411
  H   -2.327887501  -0.668365542  -2.095708629
  H   -1.243198908  -1.609688389  -1.062417552
  H   -0.730446457  -0.034132547  -1.638107306
  O   -1.406413802   0.442104559   0.852497550
  C   -2.134331671   0.024543777  -0.036520509
  N   -3.483652162   0.081809859   0.069824619
  C   -1.590738906  -0.604273677  -1.298570554
