21
charge=0 charge_a=0 charge_b=0 selection_a=1-12 selection_b=13-21 scaling=1.0 benchmark_Eint=-8.390 benchmark_unit=kcal/mol group=NH-O
  C    1.384484784  -1.719712467   0.589438586
  H    0.397598778  -1.568280033   1.021127197
  H    1.316145491  -2.418352237  -0.243584041
  H    2.038759914  -2.167506719   1.334909105
  C    2.022162905  -0.434719979   0.096354238
  O    3.154230787  -0.414584469  -0.364848379
  N    1.254449587   0.673519781   0.198295167
  H    0.313204867   0.601065567   0.563201472
  C    1.747032381   1.966246047  -0.229317473
  H    2.034320616   1.949672384  -1.280868813
  H    2.624771301   2.263009513   0.344916034
  H    0.961176450   2.702846224  -0.083169955
  H   -4.282348714  -0.278603114  -0.617451580
  H   -4.076509711   0.445412962   0.940867420
  H   -2.518956242  -0.686027876  -2.063564620
  H   -1.434267649  -1.627350723  -1.030273543
  H   -0.921515198  -0.051794881  -1.605963297
  O   -1.597482543   0.424442225   0.884641559
  C   -2.325400412   0.006881443  -0.004376500
  N   -3.674720903   0.064147525   0.101968628
  C   -1.781807647  -0.621936011  -1.266426545
