16
charge=0 charge_a=0 charge_b=0 selection_a=1-7 selection_b=8-16 scaling=0.85 benchmark_Eint=-2.218 benchmark_unit=kcal/mol group=NH-O
  N   -1.924102404  -0.484806007   0.513383399
  H   -0.979899356  -0.369296403   0.861046291
  H   -2.557039828  -0.350397193   1.289921033
  C   -2.188494797   0.484902339  -0.546053857
  H   -3.202712713   0.351914201  -0.922219708
  H   -2.074024980   1.536661280  -0.253811067
  H   -1.510932686   0.298701945  -1.379492268
  H    1.032733978   1.842044973   0.884938077
  H    2.339792680   1.143035444  -0.096923589
  H    0.740670600   1.434379710  -0.820857285
  H    0.684780640  -2.083248418  -0.016779906
  H    2.143879034  -1.261748340  -0.624401273
  H    0.558635802  -0.939392394  -1.367725292
  C    1.261257041   1.131762617   0.094347713
  O    0.832463882  -0.140193599   0.530532390
  C    1.072442080  -1.154107193  -0.424705060
