19
charge=0 charge_a=0 charge_b=0 selection_a=1-7 selection_b=8-19 scaling=1.0 benchmark_Eint=-5.201 benchmark_unit=kcal/mol group=NH-O
  N    2.784541508   0.103314361  -0.094698501
  H    2.172857809  -0.019124213  -0.892716447
  H    3.729556178   0.182788472  -0.444855678
  C    2.407637104   1.303876314   0.650204116
  H    3.077511932   1.431160073   1.500190734
  H    2.418277651   2.231242599   0.066674136
  H    1.401704987   1.178650296   1.051307145
  H   -1.861628041   1.134711982   1.615124197
  H   -3.089182131   0.131515868   0.812903498
  H   -3.051441958   1.888997729   0.524988645
  H    0.008464575  -2.637980014  -0.328619380
  H    1.182557306  -1.650145756   0.575360788
  H   -0.065970877  -2.586648338   1.454506159
  O   -1.598898152   0.883293049  -0.439458932
  C   -0.722452239  -0.121397049  -0.515529494
  O    0.010561992  -0.255548943  -1.458361134
  O   -0.769694131  -0.921674412   0.555693907
  C    0.161884668  -2.024540782   0.555441168
  C   -2.450282736   1.005269174   0.710106007
