19
charge=0 charge_a=0 charge_b=0 selection_a=1-7 selection_b=8-19 scaling=1.05 benchmark_Eint=-5.313 benchmark_unit=kcal/mol group=NH-O
  N   -2.344403272  -0.465357477  -0.713483010
  H   -1.470883704  -0.812145831  -0.330859986
  H   -2.713250565  -1.178985136  -1.327481537
  C   -3.286996117  -0.178980010   0.365879202
  H   -4.215685195   0.213848858  -0.048716902
  H   -3.536631103  -1.037803015   1.000427839
  H   -2.867562741   0.592832014   1.011281587
  C    2.832240131  -0.938533508  -0.152347676
  H    3.193940852  -1.408222933   0.760376856
  H    3.584869491  -0.242585512  -0.518151970
  H    2.686216473  -1.725412249  -0.890021521
  C    1.494706833  -0.290715735   0.134553837
  O    0.548551942  -0.938789633   0.560963941
  N    1.411723285   1.037769158  -0.104872124
  H    2.221447800   1.516827856  -0.451131826
  C    0.192931390   1.795259892   0.134160748
  H   -0.625228467   1.421881977  -0.479666139
  H   -0.102632299   1.719627981   1.180133697
  H    0.381394113   2.838201940  -0.105188139
