19
charge=0 charge_a=0 charge_b=0 selection_a=1-7 selection_b=8-19 scaling=1.1 benchmark_Eint=-4.827 benchmark_unit=kcal/mol group=NH-O
  N    2.784541508   0.103314361  -0.094698501
  H    2.172857809  -0.019124213  -0.892716447
  H    3.729556178   0.182788472  -0.444855678
  C    2.407637104   1.303876314   0.650204116
  H    3.077511932   1.431160073   1.500190734
  H    2.418277651   2.231242599   0.066674136
  H    1.401704987   1.178650296   1.051307145
  H   -2.077857623   1.111069509   1.558559728
  H   -3.305411713   0.107873395   0.756339029
  H   -3.267671540   1.865355256   0.468424176
  H   -0.207765007  -2.661622487  -0.385183849
  H    0.966327724  -1.673788229   0.518796319
  H   -0.282200459  -2.610290811   1.397941690
  O   -1.815127734   0.859650576  -0.496023401
  C   -0.938681821  -0.145039522  -0.572093963
  O   -0.205667590  -0.279191416  -1.514925603
  O   -0.985923713  -0.945316885   0.499129438
  C   -0.054344914  -2.048183255   0.498876699
  C   -2.666512318   0.981626701   0.653541538
