19
charge=0 charge_a=0 charge_b=0 selection_a=1-7 selection_b=8-19 scaling=0.85 benchmark_Eint=-3.719 benchmark_unit=kcal/mol group=NH-O
  N   -2.344403272  -0.465357477  -0.713483010
  H   -1.470883704  -0.812145831  -0.330859986
  H   -2.713250565  -1.178985136  -1.327481537
  C   -3.286996117  -0.178980010   0.365879202
  H   -4.215685195   0.213848858  -0.048716902
  H   -3.536631103  -1.037803015   1.000427839
  H   -2.867562741   0.592832014   1.011281587
  C    2.447585722  -0.914410879  -0.322218900
  H    2.809286443  -1.384100304   0.590505632
  H    3.200215082  -0.218462883  -0.688023194
  H    2.301562064  -1.701289620  -1.059892745
  C    1.110052424  -0.266593106  -0.035317387
  O    0.163897533  -0.914667004   0.391092717
  N    1.027068876   1.061891787  -0.274743348
  H    1.836793391   1.540950485  -0.621003050
  C   -0.191723019   1.819382521  -0.035710476
  H   -1.009882876   1.446004606  -0.649537363
  H   -0.487286708   1.743750610   1.010262473
  H   -0.003260296   2.862324569  -0.275059363
