24
charge=0 charge_a=0 charge_b=0 selection_a=1-12 selection_b=13-24 scaling=1.25 benchmark_Eint=-5.712 benchmark_unit=kcal/mol group=NH-O
  C    2.111617965  -1.664266552   0.499321642
  H    1.029511422  -1.560383034   0.478189992
  H    2.413530282  -2.459632263  -0.179401922
  H    2.426282235  -1.953329375   1.501399451
  C    2.844149709  -0.394779529   0.111421223
  O    4.059442316  -0.367985922  -0.020989261
  N    2.069156042   0.698591776  -0.068116408
  H    1.069655470   0.639435771   0.051753317
  C    2.649205632   1.977443834  -0.421044775
  H    3.357538166   2.310491927   0.337679123
  H    1.849157811   2.707743919  -0.508745346
  H    3.185906791   1.917171090  -1.367929849
  H   -3.667052160  -2.135997738   0.515223852
  H   -3.628061302  -1.823502724  -1.235664550
  H   -2.520609519  -3.022615478  -0.521441898
  H   -3.572521377   2.406148154  -0.472603178
  H   -3.602572458   2.093746648   1.274188726
  H   -5.057322173   1.768168972   0.289161656
  O   -1.980749386  -1.115137874  -0.169133486
  C   -2.276965310   0.161992142   0.053526610
  O   -1.424071600   0.995704998   0.220897934
  O   -3.592382743   0.396836770   0.069223528
  C   -3.973452820   1.764583220   0.307366408
  C   -3.031042304  -2.079083356  -0.364231032
