17
charge=0 charge_a=0 charge_b=0 selection_a=1-7 selection_b=8-17 scaling=1.0 benchmark_Eint=-4.099 benchmark_unit=kcal/mol group=NH-O
  N    2.089797222  -0.114383308  -0.691561125
  H    1.203225172   0.251170644  -1.014369894
  H    2.813189158   0.249569404  -1.296575623
  C    2.320399586   0.276944512   0.698485013
  H    3.246507355  -0.172481754   1.056303175
  H    2.385037144   1.359011715   0.868650288
  H    1.507976249  -0.107421659   1.312766089
  H   -2.371485892   1.661358185   0.470233836
  H   -1.271970547   2.413996601  -0.716233158
  H   -0.651737743   1.920830404   0.882043210
  H   -0.998331437  -2.517369677   0.733143609
  H   -1.659941798  -1.993520531  -0.837362387
  H    0.097660874  -1.847990781  -0.505166061
  C   -1.352144657   1.676914619   0.081053030
  O   -1.022198836   0.447237633  -0.527060124
  O   -1.126918229  -0.543028363   0.544332284
  C   -0.903390626  -1.795007879  -0.076067860
