24
charge=0 charge_a=0 charge_b=0 selection_a=1-12 selection_b=13-24 scaling=0.85 benchmark_Eint=-5.264 benchmark_unit=kcal/mol group=NH-O
  C    2.111617965  -1.664266552   0.499321642
  H    1.029511422  -1.560383034   0.478189992
  H    2.413530282  -2.459632263  -0.179401922
  H    2.426282235  -1.953329375   1.501399451
  C    2.844149709  -0.394779529   0.111421223
  O    4.059442316  -0.367985922  -0.020989261
  N    2.069156042   0.698591776  -0.068116408
  H    1.069655470   0.639435771   0.051753317
  C    2.649205632   1.977443834  -0.421044775
  H    3.357538166   2.310491927   0.337679123
  H    1.849157811   2.707743919  -0.508745346
  H    3.185906791   1.917171090  -1.367929849
  H   -2.869059498  -2.250003891   0.461097575
  H   -2.830068640  -1.937508877  -1.289790828
  H   -1.722616857  -3.136621630  -0.575568175
  H   -2.774528715   2.292142002  -0.526729455
  H   -2.804579796   1.979740496   1.220062449
  H   -4.259329511   1.654162820   0.235035378
  O   -1.182756724  -1.229144026  -0.223259763
  C   -1.478972648   0.047985990  -0.000599668
  O   -0.626078938   0.881698846   0.166771657
  O   -2.794390081   0.282830618   0.015097251
  C   -3.175460158   1.650577068   0.253240130
  C   -2.233049642  -2.193089508  -0.418357309
