19
charge=0 charge_a=0 charge_b=0 selection_a=1-7 selection_b=8-19 scaling=1.25 benchmark_Eint=-4.108 benchmark_unit=kcal/mol group=NH-O
  N   -2.344403272  -0.465357477  -0.713483010
  H   -1.470883704  -0.812145831  -0.330859986
  H   -2.713250565  -1.178985136  -1.327481537
  C   -3.286996117  -0.178980010   0.365879202
  H   -4.215685195   0.213848858  -0.048716902
  H   -3.536631103  -1.037803015   1.000427839
  H   -2.867562741   0.592832014   1.011281587
  C    3.216894540  -0.962656137   0.017523548
  H    3.578595261  -1.432345562   0.930248080
  H    3.969523900  -0.266708141  -0.348280746
  H    3.070870882  -1.749534878  -0.720150297
  C    1.879361242  -0.314838364   0.304425061
  O    0.933206351  -0.962912262   0.730835165
  N    1.796377694   1.013646529   0.064999100
  H    2.606102209   1.492705227  -0.281260602
  C    0.577585799   1.771137263   0.304031972
  H   -0.240574058   1.397759348  -0.309794915
  H    0.282022110   1.695505352   1.350004921
  H    0.766048522   2.814079311   0.064683085
