17
charge=0 charge_a=0 charge_b=0 selection_a=1-7 selection_b=8-17 scaling=0.85 benchmark_Eint=-2.897 benchmark_unit=kcal/mol group=NH-O
  N   -2.320449217  -0.046031921  -0.642205280
  H   -1.489900949  -0.627053754  -0.660175145
  H   -2.995379544  -0.452662257  -1.275481699
  C   -2.857689061   0.020658642   0.715171772
  H   -3.730123742   0.673846404   0.734336621
  H   -3.148625650  -0.945117009   1.145268626
  H   -2.109018004   0.460614784   1.374159785
  H    0.535172363   1.903941927   0.742339661
  H   -0.551714186   1.407060885  -0.577439314
  H    1.104155613   1.994206653  -0.910284039
  H    2.733289254  -1.180338202   0.368344477
  H    2.760507996   0.465679285   1.056594425
  C    0.478415278   1.412826450  -0.231779401
  C    1.008331313   0.005087693  -0.104071876
  O    0.294619092  -0.966264948  -0.228089592
  C    2.483123763  -0.138674803   0.191960423
  H    3.062157368   0.236956009  -0.653874993
