21
charge=0 charge_a=0 charge_b=0 selection_a=1-12 selection_b=13-21 scaling=1.25 benchmark_Eint=-6.645 benchmark_unit=kcal/mol group=NH-O
  C    1.384484784  -1.719712467   0.589438586
  H    0.397598778  -1.568280033   1.021127197
  H    1.316145491  -2.418352237  -0.243584041
  H    2.038759914  -2.167506719   1.334909105
  C    2.022162905  -0.434719979   0.096354238
  O    3.154230787  -0.414584469  -0.364848379
  N    1.254449587   0.673519781   0.198295167
  H    0.313204867   0.601065567   0.563201472
  C    1.747032381   1.966246047  -0.229317473
  H    2.034320616   1.949672384  -1.280868813
  H    2.624771301   2.263009513   0.344916034
  H    0.961176450   2.702846224  -0.083169955
  H   -4.760020566  -0.322758950  -0.537091558
  H   -4.554181564   0.401257126   1.021227442
  H   -2.996628094  -0.730183712  -1.983204598
  H   -1.911939502  -1.671506558  -0.949913521
  H   -1.399187050  -0.095950716  -1.525603275
  O   -2.075154396   0.380286390   0.965001581
  C   -2.803072264  -0.037274392   0.075983522
  N   -4.152392756   0.019991690   0.182328650
  C   -2.259479500  -0.666091846  -1.186066523
