15
charge=0 charge_a=0 charge_b=0 selection_a=1-7 selection_b=8-15 scaling=1.05 benchmark_Eint=-4.528 benchmark_unit=kcal/mol group=NH-O
  N   -2.316216968   0.025865889  -0.635392564
  H   -1.530163493  -0.606012743  -0.732090283
  H   -3.018810396  -0.250636993  -1.307480736
  C   -2.846316511  -0.034698180   0.725589642
  H   -3.668788163   0.672564309   0.831117187
  H   -3.206611440  -1.022075733   1.037110085
  H   -2.067201286   0.266183491   1.425892153
  H    2.910288489  -1.089953353   0.355137320
  H    1.500175387   1.882689607  -0.828775714
  H   -0.153769303   1.357959967  -0.399333783
  H    1.024876299   1.830211992   0.857397898
  O    0.703560898  -1.066968870  -0.192219947
  C    1.369020138  -0.077421032  -0.012584330
  O    2.680411414  -0.151465741   0.311734224
  C    0.891477907   1.340081974  -0.106659919
