25
charge=0 charge_a=0 charge_b=0 selection_a=1-12 selection_b=13-25 scaling=0.95 benchmark_Eint=-5.787 benchmark_unit=kcal/mol group=NH-O
  C    1.098341317  -1.109788246  -1.468472142
  H    0.272377385  -1.603754542  -0.957941160
  H    1.545449813  -1.823366272  -2.155532496
  H    0.700976879  -0.264499639  -2.026052154
  C    2.136132078  -0.709177873  -0.440761328
  O    2.892474131  -1.521927111   0.065655699
  N    2.166570984   0.609452910  -0.115598875
  H    1.424072361   1.207043007  -0.437204750
  C    3.022490511   1.094612387   0.947934852
  H    4.042557295   0.753456881   0.788961816
  H    3.003073173   2.181321409   0.948087899
  H    2.701343965   0.731416767   1.926871455
  H   -0.103083491   0.672166787   1.729573853
  H   -3.138577891  -2.240177009   0.882879873
  H   -1.338375250  -1.380379454   2.350124354
  H   -2.455145011   1.010923269  -1.824231797
  H   -0.818818517   2.484891656  -1.183068433
  H   -3.699046169  -1.026468386  -1.201435571
  C   -2.601897517  -1.342154638   0.615566738
  C   -1.591375744  -0.857622556   1.439075817
  C   -0.894418864   0.292813714   1.101324769
  C   -1.208601295   0.958267200  -0.076920612
  C   -2.219973375   0.488851500  -0.905259258
  C   -2.915183089  -0.661421651  -0.553445140
  O   -0.456996284   2.064240950  -0.398244548
