25
charge=0 charge_a=0 charge_b=0 selection_a=1-12 selection_b=13-25 scaling=0.85 benchmark_Eint=-4.136 benchmark_unit=kcal/mol group=NH-O
  C    1.098341317  -1.109788246  -1.468472142
  H    0.272377385  -1.603754542  -0.957941160
  H    1.545449813  -1.823366272  -2.155532496
  H    0.700976879  -0.264499639  -2.026052154
  C    2.136132078  -0.709177873  -0.440761328
  O    2.892474131  -1.521927111   0.065655699
  N    2.166570984   0.609452910  -0.115598875
  H    1.424072361   1.207043007  -0.437204750
  C    3.022490511   1.094612387   0.947934852
  H    4.042557295   0.753456881   0.788961816
  H    3.003073173   2.181321409   0.948087899
  H    2.701343965   0.731416767   1.926871455
  H    0.094923735   0.581935424   1.725472779
  H   -2.940570665  -2.330408372   0.878778799
  H   -1.140368024  -1.470610817   2.346023280
  H   -2.257137785   0.920691906  -1.828332871
  H   -0.620811291   2.394660293  -1.187169507
  H   -3.501038943  -1.116699749  -1.205536645
  C   -2.403890291  -1.432386001   0.611465664
  C   -1.393368518  -0.947853919   1.434974743
  C   -0.696411638   0.202582351   1.097223695
  C   -1.010594069   0.868035837  -0.081021686
  C   -2.021966149   0.398620137  -0.909360332
  C   -2.717175863  -0.751653014  -0.557546214
  O   -0.258989058   1.974009587  -0.402345622
