22
charge=0 charge_a=0 charge_b=0 selection_a=1-12 selection_b=13-22 scaling=0.95 benchmark_Eint=-6.088 benchmark_unit=kcal/mol group=NH-O
  C    1.171947069   1.668049406  -0.678143887
  H    1.516372126   2.536525480  -0.121352529
  H    0.090766463   1.585464780  -0.591785907
  H    1.436533747   1.825352729  -1.723578674
  C    1.909784714   0.445061910  -0.171618720
  O    3.118429561   0.442637690   0.001589023
  N    1.142198692  -0.646912217   0.067093460
  H    0.151222785  -0.612769628  -0.111842979
  C    1.729710724  -1.892903091   0.515978668
  H    2.318087272  -1.737194958   1.418993251
  H    0.930791442  -2.599421971   0.726412416
  H    2.392016228  -2.317011077  -0.239586909
  H   -3.421445348  -0.463616734  -1.497020601
  H   -2.093568802  -1.560307991  -1.969679803
  H   -1.895100437   0.202284210  -2.147837418
  H   -2.151172941   1.533558695   2.130081185
  H   -2.676574665  -0.172642602   2.104460552
  H   -0.936691011   0.237368046   2.003563736
  C   -2.339664574  -0.589480643  -1.543356112
  O   -1.778796915  -0.612633956  -0.244393827
  O   -2.066547640   0.702476028   0.325757022
  C   -1.946430804   0.543782568   1.726057028
