25
charge=0 charge_a=0 charge_b=0 selection_a=1-12 selection_b=13-25 scaling=1.05 benchmark_Eint=-5.776 benchmark_unit=kcal/mol group=NH-O
  C    1.098341317  -1.109788246  -1.468472142
  H    0.272377385  -1.603754542  -0.957941160
  H    1.545449813  -1.823366272  -2.155532496
  H    0.700976879  -0.264499639  -2.026052154
  C    2.136132078  -0.709177873  -0.440761328
  O    2.892474131  -1.521927111   0.065655699
  N    2.166570984   0.609452910  -0.115598875
  H    1.424072361   1.207043007  -0.437204750
  C    3.022490511   1.094612387   0.947934852
  H    4.042557295   0.753456881   0.788961816
  H    3.003073173   2.181321409   0.948087899
  H    2.701343965   0.731416767   1.926871455
  H   -0.301090717   0.762398149   1.733674927
  H   -3.336585117  -2.149945647   0.886980947
  H   -1.536382476  -1.290148092   2.354225428
  H   -2.653152237   1.101154631  -1.820130723
  H   -1.016825743   2.575123018  -1.178967359
  H   -3.897053395  -0.936237024  -1.197334497
  C   -2.799904743  -1.251923276   0.619667812
  C   -1.789382970  -0.767391194   1.443176891
  C   -1.092426090   0.383045076   1.105425843
  C   -1.406608521   1.048498562  -0.072819538
  C   -2.417980601   0.579082862  -0.901158184
  C   -3.113190315  -0.571190289  -0.549344066
  O   -0.655003510   2.154472312  -0.394143474
