24
charge=0 charge_a=0 charge_b=0 selection_a=1-12 selection_b=13-24 scaling=0.8 benchmark_Eint=-4.212 benchmark_unit=kcal/mol group=NH-O
  C    1.850159862  -1.629702119   0.788542647
  H    1.897945069  -2.410359520   0.030210277
  H    0.820900829  -1.500494504   1.116008491
  H    2.457417862  -1.958092147   1.629865238
  C    2.457001988  -0.360816341   0.220315375
  O    3.623612157  -0.313154093  -0.143284413
  N    1.622715606   0.699629688   0.143313426
  H    0.654945809   0.600221651   0.425239655
  C    2.077143215   1.971124773  -0.378753413
  H    2.894741695   2.372379723   0.220038746
  H    2.440111219   1.871232828  -1.402210109
  H    1.245755718   2.671171714  -0.359535507
  C   -0.824504967  -0.820948252  -1.488042301
  H   -0.051607395  -0.169771205  -1.889113629
  H   -1.512245834  -1.100533316  -2.283192116
  H   -0.330501334  -1.718156966  -1.117902398
  C   -1.502428449  -0.126911609  -0.329863850
  O   -0.867838307   0.399845989   0.578457583
  N   -2.852587290  -0.125811644  -0.333568790
  H   -3.337717404  -0.570511130  -1.090236362
  C   -3.618647717   0.485966532   0.738137179
  H   -3.369330292   1.541230049   0.833864627
  H   -4.676469229   0.386643242   0.512891703
  H   -3.407107550   0.002710470   1.690747616
