25
charge=0 charge_a=0 charge_b=0 selection_a=1-12 selection_b=13-25 scaling=1.0 benchmark_Eint=-5.906 benchmark_unit=kcal/mol group=NH-O
  C    1.098341317  -1.109788246  -1.468472142
  H    0.272377385  -1.603754542  -0.957941160
  H    1.545449813  -1.823366272  -2.155532496
  H    0.700976879  -0.264499639  -2.026052154
  C    2.136132078  -0.709177873  -0.440761328
  O    2.892474131  -1.521927111   0.065655699
  N    2.166570984   0.609452910  -0.115598875
  H    1.424072361   1.207043007  -0.437204750
  C    3.022490511   1.094612387   0.947934852
  H    4.042557295   0.753456881   0.788961816
  H    3.003073173   2.181321409   0.948087899
  H    2.701343965   0.731416767   1.926871455
  H   -0.202087104   0.717282468   1.731624390
  H   -3.237581504  -2.195061328   0.884930410
  H   -1.437378863  -1.335263773   2.352174891
  H   -2.554148624   1.056038950  -1.822181260
  H   -0.917822130   2.530007337  -1.181017896
  H   -3.798049782  -0.981352705  -1.199385034
  C   -2.700901130  -1.297038957   0.617617275
  C   -1.690379357  -0.812506875   1.441126354
  C   -0.993422477   0.337929395   1.103375306
  C   -1.307604908   1.003382881  -0.074870075
  C   -2.318976988   0.533967181  -0.903208721
  C   -3.014186702  -0.616305970  -0.551394603
  O   -0.555999897   2.109356631  -0.396194011
