24
charge=0 charge_a=0 charge_b=0 selection_a=1-12 selection_b=13-24 scaling=1.5 benchmark_Eint=-4.706 benchmark_unit=kcal/mol group=NH-O
  C    1.850159862  -1.629702119   0.788542647
  H    1.897945069  -2.410359520   0.030210277
  H    0.820900829  -1.500494504   1.116008491
  H    2.457417862  -1.958092147   1.629865238
  C    2.457001988  -0.360816341   0.220315375
  O    3.623612157  -0.313154093  -0.143284413
  N    1.622715606   0.699629688   0.143313426
  H    0.654945809   0.600221651   0.425239655
  C    2.077143215   1.971124773  -0.378753413
  H    2.894741695   2.372379723   0.220038746
  H    2.440111219   1.871232828  -1.402210109
  H    1.245755718   2.671171714  -0.359535507
  C   -2.156941068  -0.996276957  -1.353976614
  H   -1.384043496  -0.345099910  -1.755047942
  H   -2.844681936  -1.275862021  -2.149126429
  H   -1.662937436  -1.893485671  -0.983836711
  C   -2.834864550  -0.302240314  -0.195798163
  O   -2.200274408   0.224517284   0.712523270
  N   -4.185023392  -0.301140349  -0.199503103
  H   -4.670153506  -0.745839835  -0.956170675
  C   -4.951083818   0.310637827   0.872202866
  H   -4.701766394   1.365901344   0.967930314
  H   -6.008905330   0.211314537   0.646957390
  H   -4.739543652  -0.172618235   1.824813303
