24
charge=0 charge_a=0 charge_b=0 selection_a=1-12 selection_b=13-24 scaling=2.0 benchmark_Eint=-2.164 benchmark_unit=kcal/mol group=NH-O
  C    1.850159862  -1.629702119   0.788542647
  H    1.897945069  -2.410359520   0.030210277
  H    0.820900829  -1.500494504   1.116008491
  H    2.457417862  -1.958092147   1.629865238
  C    2.457001988  -0.360816341   0.220315375
  O    3.623612157  -0.313154093  -0.143284413
  N    1.622715606   0.699629688   0.143313426
  H    0.654945809   0.600221651   0.425239655
  C    2.077143215   1.971124773  -0.378753413
  H    2.894741695   2.372379723   0.220038746
  H    2.440111219   1.871232828  -1.402210109
  H    1.245755718   2.671171714  -0.359535507
  C   -3.108681141  -1.121511746  -1.258215409
  H   -2.335783569  -0.470334699  -1.659286737
  H   -3.796422008  -1.401096810  -2.053365224
  H   -2.614677508  -2.018720460  -0.888075506
  C   -3.786604623  -0.427475103  -0.100036958
  O   -3.152014481   0.099282495   0.808284475
  N   -5.136763464  -0.426375138  -0.103741898
  H   -5.621893578  -0.871074624  -0.860409470
  C   -5.902823891   0.185403038   0.967964071
  H   -5.653506466   1.240666555   1.063691519
  H   -6.960645403   0.086079748   0.742718595
  H   -5.691283724  -0.297853024   1.920574508
