18
charge=0 charge_a=0 charge_b=0 selection_a=1-12 selection_b=13-18 scaling=0.8 benchmark_Eint=-2.426 benchmark_unit=kcal/mol group=NH-O
  C    0.625405809   1.795438616  -0.275935061
  H    1.207342635   2.335590843  -1.020263888
  H   -0.403039260   1.703394652  -0.618280931
  H    0.649710536   2.379440668   0.642907965
  C    1.291015338   0.457626562  -0.018002750
  O    2.459257807   0.375872492   0.329032499
  N    0.505374112  -0.631442090  -0.191101509
  H   -0.454909074  -0.515442922  -0.475703048
  C    1.019876175  -1.967885882   0.027683957
  H    1.824443122  -2.200742458  -0.670135581
  H    0.210432257  -2.679739893  -0.111406553
  H    1.419351159  -2.070493672   1.036152222
  O   -2.026476487  -0.287127401  -0.522721536
  H   -2.696065716  -0.200411623  -1.203950377
  C   -2.535072073   0.203342334   0.717257949
  H   -1.734527700   0.098029829   1.444583509
  H   -3.395627855  -0.376722364   1.054952122
  H   -2.810906344   1.257414952   0.650734220
