18
charge=0 charge_a=0 charge_b=0 selection_a=1-12 selection_b=13-18 scaling=2.0 benchmark_Eint=-1.357 benchmark_unit=kcal/mol group=NH-O
  C    0.625405809   1.795438616  -0.275935061
  H    1.207342635   2.335590843  -1.020263888
  H   -0.403039260   1.703394652  -0.618280931
  H    0.649710536   2.379440668   0.642907965
  C    1.291015338   0.457626562  -0.018002750
  O    2.459257807   0.375872492   0.329032499
  N    0.505374112  -0.631442090  -0.191101509
  H   -0.454909074  -0.515442922  -0.475703048
  C    1.019876175  -1.967885882   0.027683957
  H    1.824443122  -2.200742458  -0.670135581
  H    0.210432257  -2.679739893  -0.111406553
  H    1.419351159  -2.070493672   1.036152222
  O   -4.383827606   0.055345880  -0.593249268
  H   -5.053416835   0.142061658  -1.274478109
  C   -4.892423192   0.545815615   0.646730217
  H   -4.091878819   0.440503110   1.374055777
  H   -5.752978974  -0.034249083   0.984424390
  H   -5.168257463   1.599888233   0.580206488
