22
charge=0 charge_a=0 charge_b=0 selection_a=1-12 selection_b=13-22 scaling=1.0 benchmark_Eint=-6.226 benchmark_unit=kcal/mol group=NH-O
  C    1.171947069   1.668049406  -0.678143887
  H    1.516372126   2.536525480  -0.121352529
  H    0.090766463   1.585464780  -0.591785907
  H    1.436533747   1.825352729  -1.723578674
  C    1.909784714   0.445061910  -0.171618720
  O    3.118429561   0.442637690   0.001589023
  N    1.142198692  -0.646912217   0.067093460
  H    0.151222785  -0.612769628  -0.111842979
  C    1.729710724  -1.892903091   0.515978668
  H    2.318087272  -1.737194958   1.418993251
  H    0.930791442  -2.599421971   0.726412416
  H    2.392016228  -2.317011077  -0.239586909
  H   -3.523025332  -0.463609593  -1.503996961
  H   -2.195148786  -1.560300850  -1.976656163
  H   -1.996680421   0.202291351  -2.154813778
  H   -2.252752925   1.533565836   2.123104825
  H   -2.778154649  -0.172635461   2.097484192
  H   -1.038270995   0.237375187   1.996587376
  C   -2.441244558  -0.589473502  -1.550332472
  O   -1.880376899  -0.612626815  -0.251370187
  O   -2.168127624   0.702483169   0.318780662
  C   -2.048010788   0.543789709   1.719080668
