22
charge=0 charge_a=0 charge_b=0 selection_a=1-8 selection_b=9-22 scaling=1.1 benchmark_Eint=-10.920 benchmark_unit=kcal/mol group=OH-N
  C   -2.808019079  -0.118475196   0.067221573
  O   -2.447999557  -0.281515517  -1.079374687
  O   -2.163382142   0.663975172   0.935918011
  H   -1.364427681   1.046427194   0.486004656
  C   -4.018319432  -0.770365204   0.675330898
  H   -4.533263589  -1.364012280  -0.071767596
  H   -4.685729527  -0.009773260   1.077730828
  H   -3.711303004  -1.403212482   1.507278962
  H    0.307513688  -1.166781250  -1.117384728
  H    4.231630338  -1.601874282   0.557555911
  H    2.208377840  -2.598726294  -0.467668239
  H    2.432346740   2.275430712   0.275419479
  H   -0.452886238   1.062138966  -1.513533430
  H    4.330239057   0.846995664   0.919915387
  H    0.367484263   2.413734644  -0.979332298
  C    3.399621863  -0.974962784   0.272597155
  C    2.263312742  -1.531868102  -0.302593830
  C    1.192144393  -0.732083286  -0.673191567
  C    1.248446570   0.647047344  -0.469650189
  C    2.386090595   1.207014820   0.109442582
  C    3.453136218   0.398620308   0.474913326
  N    0.132558091   1.452222974  -0.784988097
