12
charge=0 charge_a=0 charge_b=0 selection_a=1-8 selection_b=9-12 scaling=0.9 benchmark_Eint=-10.994 benchmark_unit=kcal/mol group=OH-N
  C   -0.700424167  -0.088425071   0.000000000
  O   -0.200417242  -1.193476359   0.000000000
  O    0.006697308   1.042148336   0.000000000
  H    0.981157633   0.813814638   0.000000000
  C   -2.184085832   0.164587678   0.000000000
  H   -2.720405660  -0.777936826   0.000000000
  H   -2.457236611   0.750352723  -0.876794639
  H   -2.457236611   0.750352723   0.876794639
  N    2.407516719   0.120217371   0.000000000
  H    2.998094629   0.193158323   0.818251411
  H    2.998094629   0.193158323  -0.818251411
  H    1.970952546  -0.796819796   0.000000000
