14
charge=0 charge_a=0 charge_b=0 selection_a=1-8 selection_b=9-14 scaling=2.0 benchmark_Eint=-1.563 benchmark_unit=kcal/mol group=OH-N
  C   -1.638975366  -0.056022600   0.031518714
  O   -1.127948699  -1.122837952   0.284219743
  O   -0.934676385   1.041064882  -0.273451761
  H    0.025822213   0.821325391  -0.242476783
  C   -3.119969895   0.201850673   0.021436052
  H   -3.655230230  -0.713147090   0.249229494
  H   -3.362802565   0.968823372   0.755885812
  H   -3.422583327   0.581618092  -0.953387360
  H    3.687988384  -1.993739151  -1.196926047
  H    3.076596168  -2.318318187   0.407365792
  H    4.867814861  -2.074525496   0.169755186
  C    3.862807552  -1.795454283  -0.137526253
  N    3.619749329  -0.362801795   0.062683521
  O    4.548437353   0.268867838   0.478442327
