14
charge=0 charge_a=0 charge_b=0 selection_a=1-8 selection_b=9-14 scaling=0.8 benchmark_Eint=-2.963 benchmark_unit=kcal/mol group=OH-N
  C   -1.638975366  -0.056022600   0.031518714
  O   -1.127948699  -1.122837952   0.284219743
  O   -0.934676385   1.041064882  -0.273451761
  H    0.025822213   0.821325391  -0.242476783
  C   -3.119969895   0.201850673   0.021436052
  H   -3.655230230  -0.713147090   0.249229494
  H   -3.362802565   0.968823372   0.755885812
  H   -3.422583327   0.581618092  -0.953387360
  H    1.531632114  -1.283262839  -1.380022229
  H    0.920239898  -1.607841875   0.224269610
  H    2.711458591  -1.364049184  -0.013340996
  C    1.706451282  -1.084977971  -0.320622435
  N    1.463393059   0.347674517  -0.120412661
  O    2.392081083   0.979344150   0.295346145
