15
charge=0 charge_a=0 charge_b=0 selection_a=1-8 selection_b=9-15 scaling=0.9 benchmark_Eint=-10.264 benchmark_unit=kcal/mol group=OH-N
  C   -1.777898205  -0.187614033  -0.014413407
  O   -0.831164252  -0.942130687  -0.068633075
  O   -1.665755297   1.136026085   0.100652869
  H   -0.716769499   1.393190277   0.129354693
  C   -3.214918988  -0.627409329  -0.070424866
  H   -3.739711571  -0.286873166   0.821021108
  H   -3.704820132  -0.168234020  -0.928118721
  H   -3.268559519  -1.707705159  -0.146328218
  H    1.075758450  -1.752031878   0.301459191
  H    2.764706300  -2.197275001  -0.122334558
  H    2.434256456  -1.292006092   1.382961353
  C    2.121176090  -1.471227691   0.358086820
  O    2.318854628  -0.235653688  -0.414591307
  C    1.580124756   0.749427982  -0.095541607
  N    0.934512616   1.671923082   0.165001382
