18
charge=0 charge_a=0 charge_b=0 selection_a=1-8 selection_b=9-18 scaling=1.05 benchmark_Eint=-14.361 benchmark_unit=kcal/mol group=OH-N
  C    1.599720828   0.000000000   0.083087945
  O    1.169994748   0.000000000   1.219113350
  O    0.823461767   0.000000000  -0.997211239
  H   -0.147025393   0.000000000  -0.696476555
  C    3.066436873   0.000000000  -0.257602455
  H    3.658715227   0.000000000   0.650926367
  H    3.304153809  -0.876711766  -0.858800866
  H    3.304153809   0.876711766  -0.858800866
  H   -2.883530797  -1.279334452  -1.034066226
  H   -3.347159484  -1.268217557   0.673106985
  H   -1.860076924  -2.085955939   0.155715470
  H   -1.237059434   0.000000000   1.031999934
  H   -1.860076924   2.085955939   0.155715470
  H   -2.883530797   1.279334452  -1.034066226
  H   -3.347159484   1.268217557   0.673106985
  C   -2.496730816  -1.220485938  -0.016892505
  N   -1.710872568   0.000000000   0.134693668
  C   -2.496730816   1.220485938  -0.016892505
