15
charge=0 charge_a=0 charge_b=0 selection_a=1-8 selection_b=9-15 scaling=1.5 benchmark_Eint=-5.991 benchmark_unit=kcal/mol group=OH-N
  C   -1.777898205  -0.187614033  -0.014413407
  O   -0.831164252  -0.942130687  -0.068633075
  O   -1.665755297   1.136026085   0.100652869
  H   -0.716769499   1.393190277   0.129354693
  C   -3.214918988  -0.627409329  -0.070424866
  H   -3.739711571  -0.286873166   0.821021108
  H   -3.704820132  -0.168234020  -0.928118721
  H   -3.268559519  -1.707705159  -0.146328218
  H    2.176613192  -1.566210008   0.325223650
  H    3.865561042  -2.011453130  -0.098570099
  H    3.535111200  -1.106184222   1.406725812
  C    3.222030832  -1.285405820   0.381851279
  O    3.419709372  -0.049831818  -0.390826848
  C    2.680979500   0.935249852  -0.071777148
  N    2.035367358   1.857744952   0.188765841
