14
charge=0 charge_a=0 charge_b=0 selection_a=1-8 selection_b=9-14 scaling=0.95 benchmark_Eint=-8.831 benchmark_unit=kcal/mol group=OH-N
  C   -1.444764264  -0.138392197   0.000000000
  O   -0.619758351  -1.022825600   0.000000000
  O   -1.137714723   1.164096064   0.000000000
  H   -0.165595132   1.277343658   0.000000000
  C   -2.932098307  -0.359440656   0.000000000
  H   -3.146633163  -1.422252968   0.000000000
  H   -3.374053135   0.111866563  -0.876819295
  H   -3.374053135   0.111866563   0.876819295
  H    1.640632938  -1.763622173   0.000000000
  H    3.122967214  -1.334256926  -0.886775002
  H    3.122967214  -1.334256926   0.886775002
  C    2.526221604  -1.129608185   0.000000000
  C    2.080863603   0.249188136   0.000000000
  N    1.681573303   1.326207296   0.000000000
