22
charge=0 charge_a=0 charge_b=0 selection_a=1-8 selection_b=9-22 scaling=0.95 benchmark_Eint=-11.294 benchmark_unit=kcal/mol group=OH-N
  C   -2.808019079  -0.118475196   0.067221573
  O   -2.447999557  -0.281515517  -1.079374687
  O   -2.163382142   0.663975172   0.935918011
  H   -1.364427681   1.046427194   0.486004656
  C   -4.018319432  -0.770365204   0.675330898
  H   -4.533263589  -1.364012280  -0.071767596
  H   -4.685729527  -0.009773260   1.077730828
  H   -3.711303004  -1.403212482   1.507278962
  H    0.103379264  -1.222117038  -0.944067534
  H    4.027495914  -1.657210071   0.730873105
  H    2.004243416  -2.654062082  -0.294351045
  H    2.228212316   2.220094924   0.448736673
  H   -0.657020662   1.006803177  -1.340216236
  H    4.126104633   0.791659875   1.093232581
  H    0.163349839   2.358398855  -0.806015104
  C    3.195487439  -1.030298572   0.445914349
  C    2.059178318  -1.587203891  -0.129276636
  C    0.988009969  -0.787419074  -0.499874373
  C    1.044312146   0.591711556  -0.296332995
  C    2.181956171   1.151679031   0.282759776
  C    3.249001794   0.343284519   0.648230520
  N   -0.071576333   1.396887186  -0.611670903
