18
charge=0 charge_a=0 charge_b=0 selection_a=1-8 selection_b=9-18 scaling=0.85 benchmark_Eint=-7.274 benchmark_unit=kcal/mol group=OH-N
  C   -1.953282701   0.032088166  -0.044821300
  O   -1.711110452  -1.075603419  -0.464490533
  O   -1.015474390   0.864080740   0.422517152
  H   -0.124441281   0.428022476   0.355942795
  C   -3.329538970   0.637983782   0.016657345
  H   -4.060226608  -0.066589591  -0.364835566
  H   -3.569186888   0.905307586   1.045037322
  H   -3.354467791   1.555811909  -0.569474123
  H    0.975058596  -1.973922981   1.307184727
  H    2.153853674  -2.146917260  -0.032685613
  H    0.377009309  -2.034975803  -0.337978838
  H    2.661413711   1.954048828  -1.219120669
  H    1.408542152   2.136223596   0.048314430
  H    3.147993590   2.033812779   0.464814119
  C    1.210485525  -1.701670884   0.277758310
  N    1.255326615  -0.246327871   0.203034416
  N    2.340766696   0.224138766  -0.130325673
  C    2.365463000   1.680524191  -0.206491864
