18
charge=0 charge_a=0 charge_b=0 selection_a=1-8 selection_b=9-18 scaling=1.05 benchmark_Eint=-10.015 benchmark_unit=kcal/mol group=OH-N
  C   -1.953282701   0.032088166  -0.044821300
  O   -1.711110452  -1.075603419  -0.464490533
  O   -1.015474390   0.864080740   0.422517152
  H   -0.124441281   0.428022476   0.355942795
  C   -3.329538970   0.637983782   0.016657345
  H   -4.060226608  -0.066589591  -0.364835566
  H   -3.569186888   0.905307586   1.045037322
  H   -3.354467791   1.555811909  -0.569474123
  H    1.299709865  -2.132593650   1.271206284
  H    2.478504943  -2.305587929  -0.068664056
  H    0.701660578  -2.193646472  -0.373957281
  H    2.986064980   1.795378159  -1.255099112
  H    1.733193421   1.977552927   0.012335987
  H    3.472644859   1.875142110   0.428835676
  C    1.535136794  -1.860341553   0.241779867
  N    1.579977884  -0.404998540   0.167055973
  N    2.665417965   0.065468097  -0.166304116
  C    2.690114269   1.521853522  -0.242470307
