15
charge=0 charge_a=0 charge_b=0 selection_a=1-8 selection_b=9-15 scaling=1.1 benchmark_Eint=-10.874 benchmark_unit=kcal/mol group=OH-N
  C   -1.777898205  -0.187614033  -0.014413407
  O   -0.831164252  -0.942130687  -0.068633075
  O   -1.665755297   1.136026085   0.100652869
  H   -0.716769499   1.393190277   0.129354693
  C   -3.214918988  -0.627409329  -0.070424866
  H   -3.739711571  -0.286873166   0.821021108
  H   -3.704820132  -0.168234020  -0.928118721
  H   -3.268559519  -1.707705159  -0.146328218
  H    1.442710030  -1.690091254   0.309380677
  H    3.131657880  -2.135334377  -0.114413072
  H    2.801208038  -1.230065468   1.390882839
  C    2.488127670  -1.409287067   0.366008306
  O    2.685806210  -0.173713064  -0.406669821
  C    1.947076338   0.811368606  -0.087620121
  N    1.301464196   1.733863706   0.172922868
