14
charge=0 charge_a=0 charge_b=0 selection_a=1-8 selection_b=9-14 scaling=1.25 benchmark_Eint=-6.582 benchmark_unit=kcal/mol group=OH-N
  C   -1.638975366  -0.056022600   0.031518714
  O   -1.127948699  -1.122837952   0.284219743
  O   -0.934676385   1.041064882  -0.273451761
  H    0.025822213   0.821325391  -0.242476783
  C   -3.119969895   0.201850673   0.021436052
  H   -3.655230230  -0.713147090   0.249229494
  H   -3.362802565   0.968823372   0.755885812
  H   -3.422583327   0.581618092  -0.953387360
  H    2.340265716  -1.549691456  -1.311361161
  H    1.728873500  -1.874270492   0.292930678
  H    3.520092192  -1.630477801   0.055320072
  C    2.515084884  -1.351406588  -0.251961367
  N    2.272026660   0.081245900  -0.051751593
  O    3.200714684   0.712915533   0.364007213
