15
charge=0 charge_a=0 charge_b=0 selection_a=1-8 selection_b=9-15 scaling=0.95 benchmark_Eint=-13.470 benchmark_unit=kcal/mol group=OH-N
  C    1.176313769   0.088121290   0.030200439
  O    0.672948322   1.176240815   0.217487640
  O    0.496647972  -1.055816157   0.081086722
  H   -0.467538763  -0.848189572   0.298263018
  C    2.633769353  -0.121133504  -0.285316637
  H    3.145986270   0.834074498  -0.322519011
  H    3.086159370  -0.758159649   0.473739971
  H    2.733750015  -0.636676755  -1.239644515
  N   -1.937134283  -0.211144337   0.574184797
  H   -1.571021150   0.633688104   0.997854674
  H   -2.588559256  -0.633551197   1.222338696
  C   -2.584213977   0.105325768  -0.705517570
  H   -2.921237913  -0.815403193  -1.178057829
  H   -3.438367370   0.780249264  -0.612360522
  H   -1.849707639   0.571773466  -1.358567774
