22
charge=0 charge_a=0 charge_b=0 selection_a=1-8 selection_b=9-22 scaling=1.25 benchmark_Eint=-8.973 benchmark_unit=kcal/mol group=OH-N
  C   -2.808019079  -0.118475196   0.067221573
  O   -2.447999557  -0.281515517  -1.079374687
  O   -2.163382142   0.663975172   0.935918011
  H   -1.364427681   1.046427194   0.486004656
  C   -4.018319432  -0.770365204   0.675330898
  H   -4.533263589  -1.364012280  -0.071767596
  H   -4.685729527  -0.009773260   1.077730828
  H   -3.711303004  -1.403212482   1.507278962
  H    0.511648111  -1.111445461  -1.290701921
  H    4.435764761  -1.546538494   0.384238718
  H    2.412512263  -2.543390505  -0.640985432
  H    2.636481163   2.330766501   0.102102286
  H   -0.248751815   1.117474754  -1.686850623
  H    4.534373480   0.902331452   0.746598194
  H    0.571618686   2.469070432  -1.152649491
  C    3.603756286  -0.919626995   0.099279962
  C    2.467447165  -1.476532314  -0.475911023
  C    1.396278816  -0.676747497  -0.846508760
  C    1.452580993   0.702383133  -0.642967382
  C    2.590225018   1.262350608  -0.063874611
  C    3.657270641   0.453956096   0.301596133
  N    0.336692514   1.507558763  -0.958305290
