14
charge=0 charge_a=0 charge_b=0 selection_a=1-8 selection_b=9-14 scaling=0.85 benchmark_Eint=-5.877 benchmark_unit=kcal/mol group=OH-N
  C   -1.638975366  -0.056022600   0.031518714
  O   -1.127948699  -1.122837952   0.284219743
  O   -0.934676385   1.041064882  -0.273451761
  H    0.025822213   0.821325391  -0.242476783
  C   -3.119969895   0.201850673   0.021436052
  H   -3.655230230  -0.713147090   0.249229494
  H   -3.362802565   0.968823372   0.755885812
  H   -3.422583327   0.581618092  -0.953387360
  H    1.621480292  -1.312866019  -1.372393222
  H    1.010088076  -1.637445055   0.231898617
  H    2.801306769  -1.393652364  -0.005711989
  C    1.796299460  -1.114581151  -0.312993428
  N    1.553241237   0.318071337  -0.112783654
  O    2.481929261   0.949740970   0.302975152
