22
charge=0 charge_a=0 charge_b=0 selection_a=1-8 selection_b=9-22 scaling=0.8 benchmark_Eint=-5.896 benchmark_unit=kcal/mol group=OH-N
  C   -2.808019079  -0.118475196   0.067221573
  O   -2.447999557  -0.281515517  -1.079374687
  O   -2.163382142   0.663975172   0.935918011
  H   -1.364427681   1.046427194   0.486004656
  C   -4.018319432  -0.770365204   0.675330898
  H   -4.533263589  -1.364012280  -0.071767596
  H   -4.685729527  -0.009773260   1.077730828
  H   -3.711303004  -1.403212482   1.507278962
  H   -0.100755159  -1.277452826  -0.770750341
  H    3.823361491  -1.712545859   0.904190298
  H    1.800108993  -2.709397870  -0.121033852
  H    2.024077893   2.164759136   0.622053866
  H   -0.861155085   0.951467389  -1.166899043
  H    3.921970210   0.736324087   1.266549774
  H   -0.040784584   2.303063067  -0.632697911
  C    2.991353016  -1.085634360   0.619231542
  C    1.855043895  -1.642539679   0.044040557
  C    0.783875546  -0.842754862  -0.326557180
  C    0.840177723   0.536375768  -0.123015802
  C    1.977821748   1.096343243   0.456076969
  C    3.044867371   0.287948731   0.821547713
  N   -0.275710756   1.341551398  -0.438353710
