18
charge=0 charge_a=0 charge_b=0 selection_a=1-8 selection_b=9-18 scaling=1.25 benchmark_Eint=-7.803 benchmark_unit=kcal/mol group=OH-N
  C   -1.953282701   0.032088166  -0.044821300
  O   -1.711110452  -1.075603419  -0.464490533
  O   -1.015474390   0.864080740   0.422517152
  H   -0.124441281   0.428022476   0.355942795
  C   -3.329538970   0.637983782   0.016657345
  H   -4.060226608  -0.066589591  -0.364835566
  H   -3.569186888   0.905307586   1.045037322
  H   -3.354467791   1.555811909  -0.569474123
  H    1.624361135  -2.291264320   1.235227842
  H    2.803156213  -2.464258599  -0.104642498
  H    1.026311848  -2.352317142  -0.409935723
  H    3.310716250   1.636707489  -1.291077554
  H    2.057844691   1.818882257  -0.023642455
  H    3.797296129   1.716471440   0.392857234
  C    1.859788064  -2.019012223   0.205801425
  N    1.904629154  -0.563669210   0.131077531
  N    2.990069235  -0.093202573  -0.202282558
  C    3.014765539   1.363182852  -0.278448749
