14
charge=0 charge_a=0 charge_b=0 selection_a=1-8 selection_b=9-14 scaling=0.8 benchmark_Eint=-3.604 benchmark_unit=kcal/mol group=OH-N
  C   -1.444764264  -0.138392197   0.000000000
  O   -0.619758351  -1.022825600   0.000000000
  O   -1.137714723   1.164096064   0.000000000
  H   -0.165595132   1.277343658   0.000000000
  C   -2.932098307  -0.359440656   0.000000000
  H   -3.146633163  -1.422252968   0.000000000
  H   -3.374053135   0.111866563  -0.876819295
  H   -3.374053135   0.111866563   0.876819295
  H    1.348974764  -1.771337485   0.000000000
  H    2.831309040  -1.341972238  -0.886775002
  H    2.831309040  -1.341972238   0.886775002
  C    2.234563430  -1.137323497   0.000000000
  C    1.789205429   0.241472824   0.000000000
  N    1.389915129   1.318491984   0.000000000
