18
charge=0 charge_a=0 charge_b=0 selection_a=1-8 selection_b=9-18 scaling=2.0 benchmark_Eint=-1.690 benchmark_unit=kcal/mol group=OH-N
  C   -1.953282701   0.032088166  -0.044821300
  O   -1.711110452  -1.075603419  -0.464490533
  O   -1.015474390   0.864080740   0.422517152
  H   -0.124441281   0.428022476   0.355942795
  C   -3.329538970   0.637983782   0.016657345
  H   -4.060226608  -0.066589591  -0.364835566
  H   -3.569186888   0.905307586   1.045037322
  H   -3.354467791   1.555811909  -0.569474123
  H    2.841803396  -2.886279332   1.100308684
  H    4.020598474  -3.059273611  -0.239561656
  H    2.243754109  -2.947332154  -0.544854881
  H    4.528158511   1.041692477  -1.425996712
  H    3.275286952   1.223867245  -0.158561613
  H    5.014738390   1.121456428   0.257938076
  C    3.077230325  -2.614027235   0.070882267
  N    3.122071415  -1.158684222  -0.003841627
  N    4.207511496  -0.688217585  -0.337201716
  C    4.232207800   0.768167840  -0.413367907
