22
charge=0 charge_a=0 charge_b=0 selection_a=1-8 selection_b=9-22 scaling=0.9 benchmark_Eint=-10.484 benchmark_unit=kcal/mol group=OH-N
  C   -2.808019079  -0.118475196   0.067221573
  O   -2.447999557  -0.281515517  -1.079374687
  O   -2.163382142   0.663975172   0.935918011
  H   -1.364427681   1.046427194   0.486004656
  C   -4.018319432  -0.770365204   0.675330898
  H   -4.533263589  -1.364012280  -0.071767596
  H   -4.685729527  -0.009773260   1.077730828
  H   -3.711303004  -1.403212482   1.507278962
  H    0.035334456  -1.240562300  -0.886295136
  H    3.959451106  -1.675655334   0.788645503
  H    1.936198608  -2.672507344  -0.236578647
  H    2.160167508   2.201649662   0.506509071
  H   -0.725065470   0.988357914  -1.282443838
  H    4.058059825   0.773214612   1.151004979
  H    0.095305031   2.339953592  -0.748242706
  C    3.127442631  -1.048743834   0.503686747
  C    1.991133510  -1.605649154  -0.071504238
  C    0.919965161  -0.805864336  -0.442101975
  C    0.976267338   0.573266294  -0.238560597
  C    2.113911363   1.133233768   0.340532174
  C    3.180956986   0.324839256   0.706002918
  N   -0.139621141   1.378441924  -0.553898505
