18
charge=0 charge_a=0 charge_b=0 selection_a=1-8 selection_b=9-18 scaling=0.9 benchmark_Eint=-9.026 benchmark_unit=kcal/mol group=OH-N
  C   -1.953282701   0.032088166  -0.044821300
  O   -1.711110452  -1.075603419  -0.464490533
  O   -1.015474390   0.864080740   0.422517152
  H   -0.124441281   0.428022476   0.355942795
  C   -3.329538970   0.637983782   0.016657345
  H   -4.060226608  -0.066589591  -0.364835566
  H   -3.569186888   0.905307586   1.045037322
  H   -3.354467791   1.555811909  -0.569474123
  H    1.056221413  -2.013590648   1.298190116
  H    2.235016491  -2.186584927  -0.041680224
  H    0.458172126  -2.074643470  -0.346973449
  H    2.742576528   1.914381161  -1.228115280
  H    1.489704969   2.096555929   0.039319819
  H    3.229156407   1.994145112   0.455819508
  C    1.291648342  -1.741338551   0.268763699
  N    1.336489432  -0.285995538   0.194039805
  N    2.421929513   0.184471099  -0.139320284
  C    2.446625817   1.640856524  -0.215486475
