18
charge=0 charge_a=0 charge_b=0 selection_a=1-8 selection_b=9-18 scaling=0.85 benchmark_Eint=-11.410 benchmark_unit=kcal/mol group=OH-N
  C    1.599720828   0.000000000   0.083087945
  O    1.169994748   0.000000000   1.219113350
  O    0.823461767   0.000000000  -0.997211239
  H   -0.147025393   0.000000000  -0.696476555
  C    3.066436873   0.000000000  -0.257602455
  H    3.658715227   0.000000000   0.650926367
  H    3.304153809  -0.876711766  -0.858800866
  H    3.304153809   0.876711766  -0.858800866
  H   -2.585655145  -1.279334452  -1.192384363
  H   -3.049283832  -1.268217557   0.514788848
  H   -1.562201272  -2.085955939  -0.002602667
  H   -0.939183782   0.000000000   0.873681797
  H   -1.562201272   2.085955939  -0.002602667
  H   -2.585655145   1.279334452  -1.192384363
  H   -3.049283832   1.268217557   0.514788848
  C   -2.198855164  -1.220485938  -0.175210642
  N   -1.412996916   0.000000000  -0.023624469
  C   -2.198855164   1.220485938  -0.175210642
