14
charge=0 charge_a=0 charge_b=0 selection_a=1-8 selection_b=9-14 scaling=0.9 benchmark_Eint=-8.057 benchmark_unit=kcal/mol group=OH-N
  C   -1.444764264  -0.138392197   0.000000000
  O   -0.619758351  -1.022825600   0.000000000
  O   -1.137714723   1.164096064   0.000000000
  H   -0.165595132   1.277343658   0.000000000
  C   -2.932098307  -0.359440656   0.000000000
  H   -3.146633163  -1.422252968   0.000000000
  H   -3.374053135   0.111866563  -0.876819295
  H   -3.374053135   0.111866563   0.876819295
  H    1.543413546  -1.766193944   0.000000000
  H    3.025747822  -1.336828697  -0.886775002
  H    3.025747822  -1.336828697   0.886775002
  C    2.429002212  -1.132179956   0.000000000
  C    1.983644211   0.246616365   0.000000000
  N    1.584353911   1.323635525   0.000000000
