22
charge=0 charge_a=0 charge_b=0 selection_a=1-8 selection_b=9-22 scaling=1.5 benchmark_Eint=-5.740 benchmark_unit=kcal/mol group=OH-N
  C   -2.808019079  -0.118475196   0.067221573
  O   -2.447999557  -0.281515517  -1.079374687
  O   -2.163382142   0.663975172   0.935918011
  H   -1.364427681   1.046427194   0.486004656
  C   -4.018319432  -0.770365204   0.675330898
  H   -4.533263589  -1.364012280  -0.071767596
  H   -4.685729527  -0.009773260   1.077730828
  H   -3.711303004  -1.403212482   1.507278962
  H    0.851872150  -1.019219148  -1.579563910
  H    4.775988800  -1.454312180   0.095376728
  H    2.752736302  -2.451164192  -0.929847422
  H    2.976705202   2.422992814  -0.186759704
  H    0.091472224   1.209701068  -1.975712612
  H    4.874597519   0.994557766   0.457736204
  H    0.911842725   2.561296746  -1.441511480
  C    3.943980325  -0.827400682  -0.189582028
  C    2.807671204  -1.384306000  -0.764773012
  C    1.736502855  -0.584521184  -1.135370750
  C    1.792805032   0.794609446  -0.931829372
  C    2.930449057   1.354576922  -0.352736600
  C    3.997494680   0.546182410   0.012734144
  N    0.676916553   1.599785076  -1.247167280
