14
charge=0 charge_a=0 charge_b=0 selection_a=1-8 selection_b=9-14 scaling=1.5 benchmark_Eint=-4.473 benchmark_unit=kcal/mol group=OH-N
  C   -1.444764264  -0.138392197   0.000000000
  O   -0.619758351  -1.022825600   0.000000000
  O   -1.137714723   1.164096064   0.000000000
  H   -0.165595132   1.277343658   0.000000000
  C   -2.932098307  -0.359440656   0.000000000
  H   -3.146633163  -1.422252968   0.000000000
  H   -3.374053135   0.111866563  -0.876819295
  H   -3.374053135   0.111866563   0.876819295
  H    2.710046242  -1.735332699   0.000000000
  H    4.192380518  -1.305967452  -0.886775002
  H    4.192380518  -1.305967452   0.886775002
  C    3.595634908  -1.101318711   0.000000000
  C    3.150276907   0.277477610   0.000000000
  N    2.750986607   1.354496770   0.000000000
