22
charge=0 charge_a=0 charge_b=0 selection_a=1-8 selection_b=9-22 scaling=1.05 benchmark_Eint=-11.344 benchmark_unit=kcal/mol group=OH-N
  C   -2.808019079  -0.118475196   0.067221573
  O   -2.447999557  -0.281515517  -1.079374687
  O   -2.163382142   0.663975172   0.935918011
  H   -1.364427681   1.046427194   0.486004656
  C   -4.018319432  -0.770365204   0.675330898
  H   -4.533263589  -1.364012280  -0.071767596
  H   -4.685729527  -0.009773260   1.077730828
  H   -3.711303004  -1.403212482   1.507278962
  H    0.239468880  -1.185226512  -1.059612330
  H    4.163585530  -1.620319545   0.615328309
  H    2.140333032  -2.617171556  -0.409895841
  H    2.364301932   2.256985450   0.333191877
  H   -0.520931046   1.043693703  -1.455761032
  H    4.262194249   0.828550401   0.977687785
  H    0.299439455   2.395289381  -0.921559900
  C    3.331577055  -0.993408046   0.330369553
  C    2.195267934  -1.550313365  -0.244821432
  C    1.124099585  -0.750528548  -0.615419169
  C    1.180401762   0.628602082  -0.411877791
  C    2.318045787   1.188569557   0.167214980
  C    3.385091410   0.380175045   0.532685724
  N    0.064513283   1.433777712  -0.727215699
