14
charge=0 charge_a=0 charge_b=0 selection_a=1-8 selection_b=9-14 scaling=1.5 benchmark_Eint=-4.073 benchmark_unit=kcal/mol group=OH-N
  C   -1.638975366  -0.056022600   0.031518714
  O   -1.127948699  -1.122837952   0.284219743
  O   -0.934676385   1.041064882  -0.273451761
  H    0.025822213   0.821325391  -0.242476783
  C   -3.119969895   0.201850673   0.021436052
  H   -3.655230230  -0.713147090   0.249229494
  H   -3.362802565   0.968823372   0.755885812
  H   -3.422583327   0.581618092  -0.953387360
  H    2.789506605  -1.697707354  -1.273216123
  H    2.178114389  -2.022286390   0.331075716
  H    3.969333082  -1.778493700   0.093465110
  C    2.964325773  -1.499422486  -0.213816329
  N    2.721267550  -0.066769998  -0.013606555
  O    3.649955574   0.564899634   0.402152251
