15
charge=0 charge_a=0 charge_b=0 selection_a=1-8 selection_b=9-15 scaling=0.9 benchmark_Eint=-6.957 benchmark_unit=kcal/mol group=OH-N
  C   -1.847940802   0.029706972  -0.103185412
  O   -1.300043862  -0.576899105  -0.992492110
  O   -1.207286385   0.464195393   0.992954030
  H   -0.257692874   0.218772560   0.920625834
  C   -3.307270073   0.390103956  -0.080573142
  H   -3.775712834  -0.019421015   0.813258545
  H   -3.795174590   0.004583216  -0.968758955
  H   -3.416672861   1.472943550  -0.035106854
  H    0.782285224  -1.748754086  -0.749958062
  H    2.424388360  -1.951630573  -0.060823076
  H    0.988555202  -2.272708186   0.927938813
  C    1.397933572  -1.647823359   0.141901273
  N    1.343961972  -0.256893571   0.640946587
  N    1.983284638   0.566656066  -0.010904603
  N    2.541053648   1.396434123  -0.529058818
