22
charge=0 charge_a=0 charge_b=0 selection_a=1-8 selection_b=9-22 scaling=2.0 benchmark_Eint=-2.220 benchmark_unit=kcal/mol group=OH-N
  C   -2.808019079  -0.118475196   0.067221573
  O   -2.447999557  -0.281515517  -1.079374687
  O   -2.163382142   0.663975172   0.935918011
  H   -1.364427681   1.046427194   0.486004656
  C   -4.018319432  -0.770365204   0.675330898
  H   -4.533263589  -1.364012280  -0.071767596
  H   -4.685729527  -0.009773260   1.077730828
  H   -3.711303004  -1.403212482   1.507278962
  H    1.532320228  -0.834766520  -2.157287889
  H    5.456436878  -1.269859553  -0.482347250
  H    3.433184380  -2.266711564  -1.507571400
  H    3.657153280   2.607445442  -0.764483682
  H    0.771920302   1.394153695  -2.553436591
  H    5.555045597   1.179010393  -0.119987774
  H    1.592290803   2.745749373  -2.019235459
  C    4.624428403  -0.642948054  -0.767306006
  C    3.488119282  -1.199853373  -1.342496991
  C    2.416950933  -0.400068556  -1.713094728
  C    2.473253110   0.979062074  -1.509553350
  C    3.610897135   1.539029549  -0.930460579
  C    4.677942758   0.730635037  -0.564989835
  N    1.357364631   1.784237704  -1.824891258
