15
charge=0 charge_a=0 charge_b=0 selection_a=1-8 selection_b=9-15 scaling=0.8 benchmark_Eint=-5.403 benchmark_unit=kcal/mol group=OH-N
  C   -1.777898205  -0.187614033  -0.014413407
  O   -0.831164252  -0.942130687  -0.068633075
  O   -1.665755297   1.136026085   0.100652869
  H   -0.716769499   1.393190277   0.129354693
  C   -3.214918988  -0.627409329  -0.070424866
  H   -3.739711571  -0.286873166   0.821021108
  H   -3.704820132  -0.168234020  -0.928118721
  H   -3.268559519  -1.707705159  -0.146328218
  H    0.892282659  -1.783002189   0.297498448
  H    2.581230509  -2.228245312  -0.126295301
  H    2.250780666  -1.322976403   1.379000610
  C    1.937700299  -1.502198002   0.354126077
  O    2.135378838  -0.266623999  -0.418552050
  C    1.396648966   0.718457671  -0.099502350
  N    0.751036825   1.640952771   0.161040639
