13
charge=0 charge_a=0 charge_b=0 selection_a=1-6 selection_b=7-13 scaling=1.05 benchmark_Eint=-4.877 benchmark_unit=kcal/mol group=OH-N
  O   -2.209904462  -0.054816560  -0.580258992
  H   -1.268469531   0.138886139  -0.486211999
  C   -2.913172988   0.611520510   0.453485531
  H   -3.962376405   0.338293244   0.361242537
  H   -2.833471641   1.699786965   0.370772775
  H   -2.566253773   0.312060799   1.447564622
  H    1.458906050  -2.158404593  -0.588652796
  H    1.282069828  -1.944726008   1.171181470
  H   -0.155783953  -2.090926225   0.140530297
  C    0.855140874  -1.703455718   0.197134481
  N    0.748613445  -0.245188407   0.010194221
  N    1.802305155   0.382543234   0.014267728
  N    2.708335791   1.053707240   0.002843680
