16
charge=0 charge_a=0 charge_b=0 selection_a=1-6 selection_b=7-16 scaling=1.0 benchmark_Eint=-8.344 benchmark_unit=kcal/mol group=OH-N
  O   -1.595339818   0.688093212  -0.217449474
  H   -0.701470430   0.441608071   0.094804663
  C   -2.487690514  -0.352566612   0.115895092
  H   -3.479099900  -0.070073065  -0.235371639
  H   -2.218418840  -1.301891789  -0.362427056
  H   -2.547933056  -0.520131412   1.197548045
  H    1.528665063   1.242364695  -1.122194022
  H    2.937446617   0.827128954  -0.133090719
  H    1.697900917   1.940739425   0.484660667
  H    1.277257745  -0.165221936   1.431322669
  H    0.725850901  -2.112603450   0.243605388
  H    0.927092010  -1.234703808  -1.270292759
  H    2.347121746  -1.618079686  -0.286059225
  C    1.861499955   1.040713723  -0.104432523
  N    1.072655528  -0.057205108   0.447122990
  C    1.291085560  -1.322293730  -0.246795885
