13
charge=0 charge_a=0 charge_b=0 selection_a=1-6 selection_b=7-13 scaling=0.95 benchmark_Eint=-4.796 benchmark_unit=kcal/mol group=OH-N
  O   -2.209904462  -0.054816560  -0.580258992
  H   -1.268469531   0.138886139  -0.486211999
  C   -2.913172988   0.611520510   0.453485531
  H   -3.962376405   0.338293244   0.361242537
  H   -2.833471641   1.699786965   0.370772775
  H   -2.566253773   0.312060799   1.447564622
  H    1.266802910  -2.121826065  -0.635929578
  H    1.089966688  -1.908147480   1.123904688
  H   -0.347887093  -2.054347697   0.093253515
  C    0.663037734  -1.666877190   0.149857699
  N    0.556510305  -0.208609879  -0.037082561
  N    1.610202015   0.419121762  -0.033009054
  N    2.516232651   1.090285768  -0.044433102
