20
charge=0 charge_a=0 charge_b=0 selection_a=1-6 selection_b=7-20 scaling=0.95 benchmark_Eint=-6.381 benchmark_unit=kcal/mol group=OH-N
  O    2.999701175  -0.319943641  -0.172917795
  H    2.388078688   0.421818579  -0.058881323
  C    2.344260718  -1.507591036   0.236535675
  H    3.035896244  -2.333120631   0.078302825
  H    1.436678961  -1.698677142  -0.343226163
  H    2.074335753  -1.485180888   1.297253087
  H   -0.376666590   0.804336210   2.136371068
  H   -3.054955264  -1.699988087  -0.078565039
  H   -2.230539432  -0.811212206   2.082542752
  H   -0.142243329   0.674776769  -2.135401818
  H    1.027178390   2.292359662   0.861532759
  H   -2.000264916  -0.936493285  -2.187000766
  H    1.090815710   2.272025717  -0.796939016
  C   -2.244455772  -0.986783079  -0.055801296
  C   -1.780409290  -0.486993275   1.154894015
  C   -0.738501451   0.428063298   1.188556486
  C   -0.142782108   0.858421695   0.003123169
  C   -0.608787092   0.357183703  -1.212455803
  C   -1.651845993  -0.556543014  -1.237028588
  N    0.970970753   1.716550775   0.035988676
