16
charge=0 charge_a=0 charge_b=0 selection_a=1-6 selection_b=7-16 scaling=0.95 benchmark_Eint=-8.139 benchmark_unit=kcal/mol group=OH-N
  O   -1.595339818   0.688093212  -0.217449474
  H   -0.701470430   0.441608071   0.094804663
  C   -2.487690514  -0.352566612   0.115895092
  H   -3.479099900  -0.070073065  -0.235371639
  H   -2.218418840  -1.301891789  -0.362427056
  H   -2.547933056  -0.520131412   1.197548045
  H    1.439958765   1.267305354  -1.139809938
  H    2.848740319   0.852069613  -0.150706635
  H    1.609194619   1.965680084   0.467044751
  H    1.188551447  -0.140281277   1.413706753
  H    0.637144603  -2.087662791   0.225989472
  H    0.838385712  -1.209763149  -1.287908675
  H    2.258415448  -1.593139027  -0.303675141
  C    1.772793657   1.065654382  -0.122048439
  N    0.983949230  -0.032264449   0.429507074
  C    1.202379262  -1.297353071  -0.264411801
