19
charge=0 charge_a=0 charge_b=0 selection_a=1-8 selection_b=9-19 scaling=1.25 benchmark_Eint=-10.705 benchmark_unit=kcal/mol group=OH-N
  C    2.645344034   0.092741541   0.000000000
  O    2.164740875   1.205565501   0.000000000
  O    1.924083836  -1.025563991   0.000000000
  H    0.943439493  -0.802865600   0.000000000
  C    4.126364856  -0.182849252   0.000000000
  H    4.677116166   0.751395124   0.000000000
  H    4.391159424  -0.772422422  -0.876841441
  H    4.391159424  -0.772422422   0.876841441
  H   -4.266024786  -1.580563652   0.000000000
  H   -1.874182090  -2.256966442   0.000000000
  C   -3.790395422   0.523575108   0.000000000
  C   -3.488240570  -0.831620850   0.000000000
  C   -2.154613500  -1.211625964   0.000000000
  N   -1.153453690  -0.330719828   0.000000000
  C   -1.444114316   0.972342108   0.000000000
  C   -2.750463064   1.441783272   0.000000000
  H   -0.590545436   1.637205906   0.000000000
  H   -2.941432364   2.504517344   0.000000000
  H   -4.818656240   0.856553454   0.000000000
