13
charge=0 charge_a=0 charge_b=0 selection_a=1-6 selection_b=7-13 scaling=1.5 benchmark_Eint=-2.151 benchmark_unit=kcal/mol group=OH-N
  O   -2.209904462  -0.054816560  -0.580258992
  H   -1.268469531   0.138886139  -0.486211999
  C   -2.913172988   0.611520510   0.453485531
  H   -3.962376405   0.338293244   0.361242537
  H   -2.833471641   1.699786965   0.370772775
  H   -2.566253773   0.312060799   1.447564622
  H    2.323370183  -2.323007970  -0.375907272
  H    2.146533961  -2.109329385   1.383926994
  H    0.708680180  -2.255529602   0.353275820
  C    1.719605007  -1.868059095   0.409880004
  N    1.613077578  -0.409791784   0.222939744
  N    2.666769288   0.217939857   0.227013252
  N    3.572799924   0.889103863   0.215589204
