22
charge=0 charge_a=0 charge_b=0 selection_a=1-8 selection_b=9-22 scaling=2.0 benchmark_Eint=-2.870 benchmark_unit=kcal/mol group=OH-N
  C   -2.357186964   0.008798926  -0.000000000
  O   -2.207820759   1.211204466  -0.000000000
  O   -1.353065602  -0.863730058   0.000000000
  H   -0.461762446  -0.380480851   0.000000000
  C   -3.703710307  -0.669251590   0.000000000
  H   -4.493272307   0.074343869  -0.000000000
  H   -3.794161562  -1.309184286   0.876926812
  H   -3.794161562  -1.309184286  -0.876926812
  H    5.158193203   1.665352644  -0.875612636
  H    5.832301573   0.284983645   0.000000000
  H    5.158193203   1.665352644   0.875612636
  H    4.153014799  -1.508827369   0.875771322
  H    3.108054225   2.886805131  -0.882650400
  H    3.108054225   2.886805131   0.882650400
  H    1.570952969   2.841579671  -0.000000000
  H    4.153014799  -1.508827369  -0.875771322
  H    2.608176798  -1.483877548   0.000000000
  C    3.675648966   0.380578807   0.000000000
  N    2.587297266   1.036054719  -0.000000000
  C    2.598762668   2.492015642  -0.000000000
  C    3.630511956  -1.118354168   0.000000000
  C    5.037622603   1.025871567  -0.000000000
