20
charge=0 charge_a=0 charge_b=0 selection_a=1-6 selection_b=7-20 scaling=0.8 benchmark_Eint=-1.990 benchmark_unit=kcal/mol group=OH-N
  O    2.999701175  -0.319943641  -0.172917795
  H    2.388078688   0.421818579  -0.058881323
  C    2.344260718  -1.507591036   0.236535675
  H    3.035896244  -2.333120631   0.078302825
  H    1.436678961  -1.698677142  -0.343226163
  H    2.074335753  -1.485180888   1.297253087
  H   -0.152912705   0.599904811   2.121391595
  H   -2.831201379  -1.904419486  -0.093544512
  H   -2.006785547  -1.015643605   2.067563279
  H    0.081510556   0.470345370  -2.150381291
  H    1.250932275   2.087928263   0.846553286
  H   -1.776511031  -1.140924684  -2.201980239
  H    1.314569595   2.067594318  -0.811918489
  C   -2.020701887  -1.191214478  -0.070780769
  C   -1.556655405  -0.691424674   1.139914542
  C   -0.514747566   0.223631899   1.173577013
  C    0.080971777   0.653990296  -0.011856304
  C   -0.385033207   0.152752304  -1.227435276
  C   -1.428092108  -0.760974413  -1.252008061
  N    1.194724638   1.512119376   0.021009203
