12
charge=0 charge_a=0 charge_b=0 selection_a=1-6 selection_b=7-12 scaling=0.85 benchmark_Eint=-3.358 benchmark_unit=kcal/mol group=OH-N
  O    2.271169342   0.653276194   0.000000000
  H    1.313480436   0.533481438   0.000000000
  C    2.876155121  -0.624338818   0.000000000
  H    3.954807364  -0.476204534   0.000000000
  H    2.611442796  -1.208150724  -0.888085808
  H    2.611442796  -1.208150724   0.888085808
  H   -3.421711521   0.933226085   0.000000000
  H   -3.295449136  -0.595318416  -0.885640940
  H   -3.295449136  -0.595318416   0.885640940
  C   -2.966014026  -0.055204110   0.000000000
  C   -1.518483219   0.065240301   0.000000000
  N   -0.375834446   0.161316699   0.000000000
