20
charge=0 charge_a=0 charge_b=0 selection_a=1-6 selection_b=7-20 scaling=1.25 benchmark_Eint=-4.895 benchmark_unit=kcal/mol group=OH-N
  O    2.999701175  -0.319943641  -0.172917795
  H    2.388078688   0.421818579  -0.058881323
  C    2.344260718  -1.507591036   0.236535675
  H    3.035896244  -2.333120631   0.078302825
  H    1.436678961  -1.698677142  -0.343226163
  H    2.074335753  -1.485180888   1.297253087
  H   -0.824174359   1.213199009   2.166330015
  H   -3.502463033  -1.291125288  -0.048606092
  H   -2.678047201  -0.402349407   2.112501699
  H   -0.589751098   1.083639568  -2.105442871
  H    0.579670621   2.701222461   0.891491706
  H   -2.447772685  -0.527630486  -2.157041819
  H    0.643307941   2.680888516  -0.766980069
  C   -2.691963541  -0.577920280  -0.025842349
  C   -2.227917059  -0.078130476   1.184852962
  C   -1.186009220   0.836926097   1.218515433
  C   -0.590289877   1.267284494   0.033082116
  C   -1.056294861   0.766046502  -1.182496856
  C   -2.099353762  -0.147680215  -1.207069641
  N    0.523462984   2.125413574   0.065947623
