20
charge=0 charge_a=0 charge_b=0 selection_a=1-6 selection_b=7-20 scaling=0.9 benchmark_Eint=-5.735 benchmark_unit=kcal/mol group=OH-N
  O    2.999701175  -0.319943641  -0.172917795
  H    2.388078688   0.421818579  -0.058881323
  C    2.344260718  -1.507591036   0.236535675
  H    3.035896244  -2.333120631   0.078302825
  H    1.436678961  -1.698677142  -0.343226163
  H    2.074335753  -1.485180888   1.297253087
  H   -0.302081962   0.736192410   2.131377910
  H   -2.980370636  -1.768131887  -0.083558197
  H   -2.155954804  -0.879356006   2.077549594
  H   -0.067658701   0.606632969  -2.140394976
  H    1.101763018   2.224215862   0.856539601
  H   -1.925680288  -1.004637085  -2.191993924
  H    1.165400338   2.203881917  -0.801932174
  C   -2.169871144  -1.054926879  -0.060794454
  C   -1.705824662  -0.555137075   1.149900857
  C   -0.663916823   0.359919498   1.183563328
  C   -0.068197480   0.790277895  -0.001869989
  C   -0.534202464   0.289039903  -1.217448961
  C   -1.577261365  -0.624686814  -1.242021746
  N    1.045555381   1.648406975   0.030995518
