22
charge=0 charge_a=0 charge_b=0 selection_a=1-8 selection_b=9-22 scaling=1.05 benchmark_Eint=-14.688 benchmark_unit=kcal/mol group=OH-N
  C   -2.357186964   0.008798926  -0.000000000
  O   -2.207820759   1.211204466  -0.000000000
  O   -1.353065602  -0.863730058   0.000000000
  H   -0.461762446  -0.380480851   0.000000000
  C   -3.703710307  -0.669251590   0.000000000
  H   -4.493272307   0.074343869  -0.000000000
  H   -3.794161562  -1.309184286   0.876926812
  H   -3.794161562  -1.309184286  -0.876926812
  H    3.709889840   0.992498248  -0.875612636
  H    4.383998210  -0.387870751   0.000000000
  H    3.709889840   0.992498248   0.875612636
  H    2.704711436  -2.181681765   0.875771322
  H    1.659750862   2.213950735  -0.882650400
  H    1.659750862   2.213950735   0.882650400
  H    0.122649606   2.168725275  -0.000000000
  H    2.704711436  -2.181681765  -0.875771322
  H    1.159873435  -2.156731944   0.000000000
  C    2.227345603  -0.292275589   0.000000000
  N    1.138993903   0.363200323  -0.000000000
  C    1.150459305   1.819161246  -0.000000000
  C    2.182208593  -1.791208564   0.000000000
  C    3.589319240   0.353017171  -0.000000000
