22
charge=0 charge_a=0 charge_b=0 selection_a=1-8 selection_b=9-22 scaling=0.85 benchmark_Eint=-11.262 benchmark_unit=kcal/mol group=OH-N
  C   -2.357186964   0.008798926  -0.000000000
  O   -2.207820759   1.211204466  -0.000000000
  O   -1.353065602  -0.863730058   0.000000000
  H   -0.461762446  -0.380480851   0.000000000
  C   -3.703710307  -0.669251590   0.000000000
  H   -4.493272307   0.074343869  -0.000000000
  H   -3.794161562  -1.309184286   0.876926812
  H   -3.794161562  -1.309184286  -0.876926812
  H    3.404983869   0.850844691  -0.875612636
  H    4.079092239  -0.529524308   0.000000000
  H    3.404983869   0.850844691   0.875612636
  H    2.399805465  -2.323335322   0.875771322
  H    1.354844891   2.072297178  -0.882650400
  H    1.354844891   2.072297178   0.882650400
  H   -0.182256365   2.027071718   0.000000000
  H    2.399805465  -2.323335322  -0.875771322
  H    0.854967464  -2.298385501   0.000000000
  C    1.922439632  -0.433929146   0.000000000
  N    0.834087932   0.221546766   0.000000000
  C    0.845553334   1.677507689   0.000000000
  C    1.877302622  -1.932862121   0.000000000
  C    3.284413269   0.211363614   0.000000000
