19
charge=0 charge_a=0 charge_b=0 selection_a=1-8 selection_b=9-19 scaling=2.0 benchmark_Eint=-2.591 benchmark_unit=kcal/mol group=OH-N
  C    2.645344034   0.092741541   0.000000000
  O    2.164740875   1.205565501   0.000000000
  O    1.924083836  -1.025563991   0.000000000
  H    0.943439493  -0.802865600   0.000000000
  C    4.126364856  -0.182849252   0.000000000
  H    4.677116166   0.751395124   0.000000000
  H    4.391159424  -0.772422422  -0.876841441
  H    4.391159424  -0.772422422   0.876841441
  H   -5.524160695  -1.297276189   0.000000000
  H   -3.132318000  -1.973678978   0.000000000
  C   -5.048531332   0.806862572   0.000000000
  C   -4.746376480  -0.548333386   0.000000000
  C   -3.412749409  -0.928338500   0.000000000
  N   -2.411589599  -0.047432364   0.000000000
  C   -2.702250225   1.255629571   0.000000000
  C   -4.008598974   1.725070735   0.000000000
  H   -1.848681346   1.920493370   0.000000000
  H   -4.199568273   2.787804807   0.000000000
  H   -6.076792149   1.139840918   0.000000000
