13
charge=0 charge_a=0 charge_b=0 selection_a=1-6 selection_b=7-13 scaling=0.85 benchmark_Eint=-5.389 benchmark_unit=kcal/mol group=OH-N
  O   -1.381580817   0.540266585  -0.400640626
  H   -0.453659817   0.613664390  -0.105659031
  C   -1.981236071  -0.539769485   0.280588208
  H   -3.016523899  -0.611018642  -0.049777707
  H   -1.490933710  -1.495750111   0.060514036
  H   -1.982737432  -0.398740089   1.367695104
  N    1.121960457   0.593656866   0.266379416
  H    1.327436396   0.659503005   1.254575632
  H    1.522581296   1.412609843  -0.172308044
  C    1.682841502  -0.634865420  -0.307738348
  H    1.415725958  -0.687971196  -1.361359816
  H    2.770103128  -0.716605470  -0.221612222
  H    1.235394432  -1.495393732   0.186296606
