10
charge=0 charge_a=0 charge_b=0 selection_a=1-6 selection_b=7-10 scaling=1.05 benchmark_Eint=-6.766 benchmark_unit=kcal/mol group=OH-N
  O    0.749094627  -0.654173646   0.000000000
  H   -0.181861619  -0.369615568   0.000000000
  C    1.570577565   0.493364232   0.000000000
  H    2.607484361   0.160609549   0.000000000
  H    1.415953385   1.117244940   0.888008831
  H    1.415953385   1.117244940  -0.888008831
  N   -2.151620747   0.161656978   0.000000000
  H   -2.667159120  -0.709692144   0.000000000
  H   -2.440611283   0.685090676  -0.816679180
  H   -2.440611283   0.685090676   0.816679180
