21
charge=0 charge_a=0 charge_b=0 selection_a=1-8 selection_b=9-21 scaling=0.9 benchmark_Eint=-14.436 benchmark_unit=kcal/mol group=OH-N
  C   -1.813551523   0.022492537  -0.000000000
  O   -1.462155012   1.183384666  -0.000000000
  O   -0.967624375  -1.003616034   0.000000000
  H   -0.008439257  -0.657019772   0.000000000
  C   -3.254391543  -0.418510872   0.000000000
  H   -3.450971311  -1.034430012   0.876712560
  H   -3.450971311  -1.034430012  -0.876712560
  H   -3.907635096   0.447269711  -0.000000000
  H    2.477215147   1.191518844   1.267881620
  H    1.383873231   0.057480832   2.085550803
  H    0.712715629   1.430442407   1.196478117
  H    0.712715629   1.430442407  -1.196478117
  H    2.477215147   1.191518844  -1.267881620
  H    1.383873231   0.057480832  -2.085550803
  H    3.406298948  -0.847043553   0.000000000
  H    2.231595473  -1.841110990  -0.883278915
  C    1.504846686   0.685963728   1.204799030
  N    1.398947524  -0.135510049   0.000000000
  C    1.504846686   0.685963728  -1.204799030
  C    2.373682259  -1.220925412   0.000000000
  H    2.231595473  -1.841110990   0.883278915
