12
charge=0 charge_a=0 charge_b=0 selection_a=1-6 selection_b=7-12 scaling=1.05 benchmark_Eint=-5.136 benchmark_unit=kcal/mol group=OH-N
  O    2.271169342   0.653276194   0.000000000
  H    1.313480436   0.533481438   0.000000000
  C    2.876155121  -0.624338818   0.000000000
  H    3.954807364  -0.476204534   0.000000000
  H    2.611442796  -1.208150724  -0.888085808
  H    2.611442796  -1.208150724   0.888085808
  H   -3.819197376   0.845657912   0.000000000
  H   -3.692934991  -0.682886589  -0.885640940
  H   -3.692934991  -0.682886589   0.885640940
  C   -3.363499881  -0.142772283   0.000000000
  C   -1.915969074  -0.022327872   0.000000000
  N   -0.773320301   0.073748526   0.000000000
