13
charge=0 charge_a=0 charge_b=0 selection_a=1-6 selection_b=7-13 scaling=0.85 benchmark_Eint=-3.104 benchmark_unit=kcal/mol group=OH-N
  O   -2.209904462  -0.054816560  -0.580258992
  H   -1.268469531   0.138886139  -0.486211999
  C   -2.913172988   0.611520510   0.453485531
  H   -3.962376405   0.338293244   0.361242537
  H   -2.833471641   1.699786965   0.370772775
  H   -2.566253773   0.312060799   1.447564622
  H    1.074699769  -2.085247537  -0.683206361
  H    0.897863547  -1.871568952   1.076627905
  H   -0.539990234  -2.017769169   0.045976732
  C    0.470934593  -1.630298662   0.102580916
  N    0.364407164  -0.172031351  -0.084359344
  N    1.418098874   0.455700290  -0.080285837
  N    2.324129510   1.126864296  -0.091709885
