16
charge=0 charge_a=0 charge_b=0 selection_a=1-6 selection_b=7-16 scaling=0.85 benchmark_Eint=-5.953 benchmark_unit=kcal/mol group=OH-N
  O   -1.595339818   0.688093212  -0.217449474
  H   -0.701470430   0.441608071   0.094804663
  C   -2.487690514  -0.352566612   0.115895092
  H   -3.479099900  -0.070073065  -0.235371639
  H   -2.218418840  -1.301891789  -0.362427056
  H   -2.547933056  -0.520131412   1.197548045
  H    1.262546169   1.317186672  -1.175041771
  H    2.671327723   0.901950931  -0.185938468
  H    1.431782023   2.015561402   0.431812918
  H    1.011138851  -0.090399959   1.378474920
  H    0.459732007  -2.037781473   0.190757639
  H    0.660973116  -1.159881831  -1.323140508
  H    2.081002852  -1.543257709  -0.338906974
  C    1.595381061   1.115535700  -0.157280272
  N    0.806536634   0.017616869   0.394275241
  C    1.024966666  -1.247471753  -0.299643634
