21
charge=0 charge_a=0 charge_b=0 selection_a=1-8 selection_b=9-21 scaling=1.0 benchmark_Eint=-15.627 benchmark_unit=kcal/mol group=OH-N
  C   -1.813551523   0.022492537  -0.000000000
  O   -1.462155012   1.183384666  -0.000000000
  O   -0.967624375  -1.003616034   0.000000000
  H   -0.008439257  -0.657019772   0.000000000
  C   -3.254391543  -0.418510872   0.000000000
  H   -3.450971311  -1.034430012   0.876712560
  H   -3.450971311  -1.034430012  -0.876712560
  H   -3.907635096   0.447269711  -0.000000000
  H    2.633591456   1.249464369   1.267881620
  H    1.540249540   0.115426357   2.085550803
  H    0.869091938   1.488387932   1.196478117
  H    0.869091938   1.488387932  -1.196478117
  H    2.633591456   1.249464369  -1.267881620
  H    1.540249540   0.115426357  -2.085550803
  H    3.562675257  -0.789098028   0.000000000
  H    2.387971782  -1.783165465  -0.883278915
  C    1.661222995   0.743909253   1.204799030
  N    1.555323833  -0.077564524  -0.000000000
  C    1.661222995   0.743909253  -1.204799030
  C    2.530058568  -1.162979887   0.000000000
  H    2.387971782  -1.783165465   0.883278915
