22
charge=0 charge_a=0 charge_b=0 selection_a=1-8 selection_b=9-22 scaling=0.95 benchmark_Eint=-14.537 benchmark_unit=kcal/mol group=OH-N
  C   -2.357186964   0.008798926  -0.000000000
  O   -2.207820759   1.211204466  -0.000000000
  O   -1.353065602  -0.863730058   0.000000000
  H   -0.461762446  -0.380480851   0.000000000
  C   -3.703710307  -0.669251590   0.000000000
  H   -4.493272307   0.074343869  -0.000000000
  H   -3.794161562  -1.309184286   0.876926812
  H   -3.794161562  -1.309184286  -0.876926812
  H    3.557436854   0.921671470  -0.875612636
  H    4.231545224  -0.458697529   0.000000000
  H    3.557436854   0.921671470   0.875612636
  H    2.552258450  -2.252508543   0.875771322
  H    1.507297876   2.143123957  -0.882650400
  H    1.507297876   2.143123957   0.882650400
  H   -0.029803380   2.097898497   0.000000000
  H    2.552258450  -2.252508543  -0.875771322
  H    1.007420449  -2.227558722   0.000000000
  C    2.074892617  -0.363102367   0.000000000
  N    0.986540917   0.292373545   0.000000000
  C    0.998006319   1.748334468   0.000000000
  C    2.029755607  -1.862035342   0.000000000
  C    3.436866254   0.282190393   0.000000000
