12
charge=0 charge_a=0 charge_b=0 selection_a=1-6 selection_b=7-12 scaling=0.8 benchmark_Eint=-1.375 benchmark_unit=kcal/mol group=OH-N
  O    2.271169342   0.653276194   0.000000000
  H    1.313480436   0.533481438   0.000000000
  C    2.876155121  -0.624338818   0.000000000
  H    3.954807364  -0.476204534   0.000000000
  H    2.611442796  -1.208150724  -0.888085808
  H    2.611442796  -1.208150724   0.888085808
  H   -3.322340057   0.955118129   0.000000000
  H   -3.196077672  -0.573426372  -0.885640940
  H   -3.196077672  -0.573426372   0.885640940
  C   -2.866642562  -0.033312066   0.000000000
  C   -1.419111755   0.087132345   0.000000000
  N   -0.276462982   0.183208743   0.000000000
