16
charge=0 charge_a=0 charge_b=0 selection_a=1-6 selection_b=7-16 scaling=0.95 benchmark_Eint=-6.137 benchmark_unit=kcal/mol group=OH-N
  O   -1.978053535  -0.023446482   0.668943910
  H   -1.041058927   0.187252730   0.522641944
  C   -2.656380907   0.093829410  -0.565780324
  H   -3.692356972  -0.197906375  -0.403387047
  H   -2.234448733  -0.562984397  -1.334728767
  H   -2.647648037   1.120277903  -0.948211132
  H    1.180732826   2.268441711   0.938348426
  H    2.400139002   1.725209880  -0.260091296
  H    0.781646517   2.304361370  -0.771647358
  H    1.144359738  -2.331055252  -0.955615890
  H   -0.067211732  -1.812625990   0.262587037
  H    1.565072703  -2.372508818   0.746403177
  C    1.340161078   1.758186715  -0.011433304
  N    0.766504346   0.420752667   0.095245996
  N    1.566104684  -0.490113049  -0.111226876
  C    0.989948207  -1.826891168  -0.001530677
