13
charge=0 charge_a=0 charge_b=0 selection_a=1-6 selection_b=7-13 scaling=0.9 benchmark_Eint=-6.824 benchmark_unit=kcal/mol group=OH-N
  O   -1.381580817   0.540266585  -0.400640626
  H   -0.453659817   0.613664390  -0.105659031
  C   -1.981236071  -0.539769485   0.280588208
  H   -3.016523899  -0.611018642  -0.049777707
  H   -1.490933710  -1.495750111   0.060514036
  H   -1.982737432  -0.398740089   1.367695104
  N    1.214644003   0.592479952   0.288264031
  H    1.420119942   0.658326091   1.276460247
  H    1.615264842   1.411432929  -0.150423429
  C    1.775525048  -0.636042334  -0.285853733
  H    1.508409504  -0.689148110  -1.339475201
  H    2.862786674  -0.717782384  -0.199727607
  H    1.328077978  -1.496570646   0.208181221
