20
charge=0 charge_a=0 charge_b=0 selection_a=1-6 selection_b=7-20 scaling=1.0 benchmark_Eint=-6.566 benchmark_unit=kcal/mol group=OH-N
  O    2.999701175  -0.319943641  -0.172917795
  H    2.388078688   0.421818579  -0.058881323
  C    2.344260718  -1.507591036   0.236535675
  H    3.035896244  -2.333120631   0.078302825
  H    1.436678961  -1.698677142  -0.343226163
  H    2.074335753  -1.485180888   1.297253087
  H   -0.451251218   0.872480010   2.141364226
  H   -3.129539892  -1.631844287  -0.073571881
  H   -2.305124060  -0.743068406   2.087535910
  H   -0.216827957   0.742920569  -2.130408660
  H    0.952593762   2.360503462   0.866525917
  H   -2.074849544  -0.868349485  -2.182007608
  H    1.016231082   2.340169517  -0.791945858
  C   -2.319040400  -0.918639279  -0.050808138
  C   -1.854993918  -0.418849475   1.159887173
  C   -0.813086079   0.496207098   1.193549644
  C   -0.217366736   0.926565495   0.008116327
  C   -0.683371720   0.425327503  -1.207462645
  C   -1.726430621  -0.488399214  -1.232035430
  N    0.896386125   1.784694575   0.040981834
