13
charge=0 charge_a=0 charge_b=0 selection_a=1-6 selection_b=7-13 scaling=1.5 benchmark_Eint=-3.685 benchmark_unit=kcal/mol group=OH-N
  O   -1.381580817   0.540266585  -0.400640626
  H   -0.453659817   0.613664390  -0.105659031
  C   -1.981236071  -0.539769485   0.280588208
  H   -3.016523899  -0.611018642  -0.049777707
  H   -1.490933710  -1.495750111   0.060514036
  H   -1.982737432  -0.398740089   1.367695104
  N    2.326846550   0.578356994   0.550879406
  H    2.532322488   0.644203133   1.539075622
  H    2.727467388   1.397309971   0.112191946
  C    2.887727594  -0.650165292  -0.023238358
  H    2.620612050  -0.703271068  -1.076859826
  H    3.974989220  -0.731905342   0.062887768
  H    2.440280524  -1.510693604   0.470796596
