17
charge=0 charge_a=0 charge_b=0 selection_a=1-6 selection_b=7-17 scaling=0.9 benchmark_Eint=-6.515 benchmark_unit=kcal/mol group=OH-N
  O    2.918572453   0.000000000  -0.605637020
  H    1.949094148   0.000000000  -0.504913136
  C    3.497253484   0.000000000   0.681677575
  H    4.579607695   0.000000000   0.560896664
  H    3.221051514   0.887249147   1.263031668
  H    3.221051514  -0.887249147   1.263031668
  H   -2.292244748   2.146999384   0.118845717
  H    0.168484878   2.052345875  -0.221158481
  C   -2.488436697   0.000000000   0.146982255
  C   -1.788357632   1.194345616   0.050419763
  C   -0.414118858   1.143788024  -0.138681277
  N    0.264076429   0.000000000  -0.231313984
  C   -0.414118858  -1.143788024  -0.138681277
  C   -1.788357632  -1.194345616   0.050419763
  H    0.168484878  -2.052345875  -0.221158481
  H   -2.292244748  -2.146999384   0.118845717
  H   -3.559151081   0.000000000   0.293901908
