23
charge=0 charge_a=0 charge_b=0 selection_a=1-13 selection_b=14-23 scaling=1.25 benchmark_Eint=-6.950 benchmark_unit=kcal/mol group=OH-N
  H    2.349850207   2.014054276  -1.100420968
  H    4.124914881  -1.504252195   0.606987840
  H    4.351327032   0.638118811  -0.618541541
  H   -0.105079366  -0.871404159   0.875309847
  H   -0.899785658   1.034097994  -0.168169270
  H    1.881332268  -2.247397120   1.348462936
  C    3.253595969  -0.901816780   0.396357907
  C    3.377332815   0.301604871  -0.291272257
  C    2.263221760   1.079355438  -0.565696838
  C    0.999415955   0.660152411  -0.149784361
  C    0.870202430  -0.545074684   0.543495393
  C    1.994594292  -1.316466103   0.810103198
  O   -0.058919477   1.454522134  -0.442336970
  H   -3.037550636   0.432316880   2.383198178
  H   -4.612276186  -0.078574666   1.692094256
  H   -3.940468574   1.555010119   1.378953038
  H   -3.456484288  -1.333682375  -2.260975794
  H   -1.877641522  -0.783541108  -1.617056030
  H   -2.516384908  -2.415108084  -1.248739768
  C   -3.705696546   0.500776441   1.524672822
  N   -2.977324586   0.035877788   0.348945558
  N   -3.506074296  -0.905538539  -0.239424800
  C   -2.773273476  -1.368577762  -1.412890850
