23
charge=0 charge_a=0 charge_b=0 selection_a=1-13 selection_b=14-23 scaling=1.0 benchmark_Eint=-11.664 benchmark_unit=kcal/mol group=OH-N
  H   -1.749137853  -2.321378372  -0.507903990
  H   -4.156128557   1.195838864   0.022547296
  H   -3.963129635  -1.214484474  -0.523274027
  H    0.084738982   1.370590325   0.613566285
  H    1.245908210  -0.587960312   0.211225926
  H   -2.113820917   2.478206375   0.589500289
  C   -3.191350583   0.710338754   0.029440534
  C   -3.079231238  -0.642642774  -0.276259519
  C   -1.844178713  -1.271742120  -0.270160033
  C   -0.691065478  -0.550678404   0.045825781
  C   -0.801351847   0.807186950   0.357304449
  C   -2.044488758   1.426831394   0.345826106
  O    0.490203787  -1.205236905   0.039072874
  H    2.685600794   0.471160773  -1.789719420
  H    3.813342014   1.628763039  -1.066503696
  H    2.059103955   1.880225203  -0.941938698
  H    2.804388238   0.957534275   1.094865887
  H    3.752254601  -1.175509659   1.351883287
  H    3.704506121  -1.395174218  -0.394800831
  H    4.835278096  -0.228813308   0.308767646
  C    2.846419600   1.129229413  -0.936653475
  N    2.769908547   0.342049630   0.292748653
  C    3.830807357  -0.658638515   0.397814744
