20
charge=0 charge_a=0 charge_b=0 selection_a=1-6 selection_b=7-20 scaling=0.8 benchmark_Eint=-3.716 benchmark_unit=kcal/mol group=OH-N
  O   -2.348486771  -0.056624773   0.613156522
  H   -1.412690424   0.210139175   0.505412839
  C   -2.950204140  -0.062602351  -0.662438603
  H   -3.976678500  -0.408762548  -0.548850877
  H   -2.440086705  -0.737765341  -1.360088137
  H   -2.976982213   0.935160117  -1.115595138
  H    2.455990221   0.272090810  -1.116968504
  H    2.807577879  -1.257791482  -0.304242021
  H    2.786014880   0.257764469   0.603609838
  H    0.863651820  -2.410198265   0.985273855
  H    0.917499024   2.069277140  -0.870275853
  H    1.270606909   2.083176569   0.858612083
  H   -0.334204334   2.541260755   0.282783837
  H    0.508069320  -2.423862369  -0.729446560
  H   -0.740415846  -1.893001247   0.422720712
  C    0.832256694  -0.473762514   0.082342446
  N    0.020331454   0.493156748   0.225058887
  C    0.497607274   1.861755956   0.117822707
  C    0.322197909  -1.879553631   0.199166260
  C    2.304238452  -0.300501433  -0.200788111
