27
charge=0 charge_a=0 charge_b=0 selection_a=1-13 selection_b=14-27 scaling=0.95 benchmark_Eint=-9.076 benchmark_unit=kcal/mol group=OH-N
  H   -3.959372696  -1.614398856   0.000000000
  H   -3.806679034   2.677238690   0.000000000
  H   -5.118408606   0.573828446   0.000000000
  H   -0.183877782   0.391867706   0.000000000
  H   -0.456340610  -1.926367398   0.000000000
  H   -1.330298696   2.563055300   0.000000000
  C   -3.304116829   1.721109194   0.000000000
  C   -4.037705605   0.538935869   0.000000000
  C   -3.398148147  -0.691216020   0.000000000
  C   -2.004879281  -0.752853442   0.000000000
  C   -1.263283200   0.428830113   0.000000000
  C   -1.916819462   1.654712258   0.000000000
  O   -1.430955865  -1.983180262   0.000000000
  H    2.056356939  -0.753414348   2.140072505
  H    3.526410827   2.653494141   0.000000000
  H    3.034962257   1.503694413   2.138917637
  H    2.056356939  -0.753414348  -2.140072505
  H    1.543659125  -2.714614509   0.827414162
  H    3.034962257   1.503694413  -2.138917637
  H    1.543659125  -2.714614509  -0.827414162
  C    3.104514403   1.659495003   0.000000000
  C    2.828822070   1.012722403   1.198537718
  C    2.283276212  -0.262767197   1.202959388
  C    2.006770298  -0.910656530   0.000000000
  C    2.283276212  -0.262767197  -1.202959388
  C    2.828822070   1.012722403  -1.198537718
  N    1.363481167  -2.165605857   0.000000000
