13
charge=0 charge_a=0 charge_b=0 selection_a=1-6 selection_b=7-13 scaling=1.5 benchmark_Eint=-3.405 benchmark_unit=kcal/mol group=OH-N
  O    1.651562762  -0.286250407   0.289854804
  H    1.237863194   0.583482002   0.341251930
  C    2.946806533  -0.155857249  -0.278087310
  H    3.372254578  -1.154759256  -0.344109428
  H    3.602360868   0.458524379   0.344144862
  H    2.909844818   0.273252962  -1.282777796
  H   -2.649835823  -0.870820319   1.229904141
  H   -1.252912422  -1.011162427   0.115241902
  H   -2.848063366  -1.710254229  -0.335590821
  C   -2.332222835  -0.917576699   0.191789065
  O   -2.752909091   0.316408275  -0.484082775
  C   -2.125777075   1.372969115  -0.134966647
  N   -1.561669213   2.338604498   0.158302741
