19
charge=0 charge_a=0 charge_b=0 selection_a=1-6 selection_b=7-19 scaling=2.0 benchmark_Eint=-1.475 benchmark_unit=kcal/mol group=OH-N
  O   -1.870564293  -0.756998080   0.000000000
  H   -0.924380728  -0.504380189   0.000000000
  C   -2.642544109   0.423845411  -0.000000000
  H   -3.693626155   0.138881740   0.000000000
  H   -2.460648385   1.040868745  -0.887998323
  H   -2.460648385   1.040868745   0.887998323
  H    3.970795657   1.599692770   1.290437192
  H    2.655449401   0.708092033   2.082411001
  H    2.301499068   2.194499577   1.198625865
  H    2.301499068   2.194499577  -1.198625865
  H    3.970795657   1.599692770  -1.290437192
  H    2.655449401   0.708092033  -2.082411001
  H    4.502752800  -0.557530643   0.000000000
  H    3.158583631  -1.311919513  -0.882114329
  C    2.916813605   1.296317670   1.204615285
  N    2.662428128   0.518380667  -0.000000000
  C    2.916813605   1.296317670  -1.204615285
  C    3.416075203  -0.728584034   0.000000000
  H    3.158583631  -1.311919513   0.882114329
