19
charge=0 charge_a=0 charge_b=0 selection_a=1-13 selection_b=14-19 scaling=2.0 benchmark_Eint=-1.776 benchmark_unit=kcal/mol group=OH-N
  H   -2.439177621  -2.210346672   0.000018357
  H   -4.008790302   1.787475803   0.000003146
  H   -4.373927693  -0.664033974   0.000024254
  H    0.228728719   1.124579004  -0.000021969
  H    0.886082286  -1.082587967  -0.000014410
  H   -1.694292048   2.670342835  -0.000017120
  C   -3.166906768   1.110729256   0.000004292
  C   -3.368590656  -0.265913192   0.000014910
  C   -2.292424837  -1.140000761   0.000011715
  C   -0.989915034  -0.641523239  -0.000002312
  C   -0.780794753   0.738333336  -0.000011307
  C   -1.867874420   1.602922733  -0.000008246
  O    0.028473775  -1.535841893  -0.000007592
  H    7.092536919   1.974987077  -0.885899197
  H    7.617133319   0.533343444   0.000033390
  H    7.092500363   1.974995599   0.885930446
  C    6.917859080   1.367366626   0.000014940
  C    5.553684153   0.870143077  -0.000010826
  N    4.477077380   0.476619205  -0.000030946
