23
charge=0 charge_a=0 charge_b=0 selection_a=1-13 selection_b=14-23 scaling=2.0 benchmark_Eint=-1.756 benchmark_unit=kcal/mol group=OH-N
  H    2.349850207   2.014054276  -1.100420968
  H    4.124914881  -1.504252195   0.606987840
  H    4.351327032   0.638118811  -0.618541541
  H   -0.105079366  -0.871404159   0.875309847
  H   -0.899785658   1.034097994  -0.168169270
  H    1.881332268  -2.247397120   1.348462936
  C    3.253595969  -0.901816780   0.396357907
  C    3.377332815   0.301604871  -0.291272257
  C    2.263221760   1.079355438  -0.565696838
  C    0.999415955   0.660152411  -0.149784361
  C    0.870202430  -0.545074684   0.543495393
  C    1.994594292  -1.316466103   0.810103198
  O   -0.058919477   1.454522134  -0.442336970
  H   -4.284073992  -0.166615244   2.693467074
  H   -5.858799543  -0.677506790   2.002363152
  H   -5.186991930   0.956077995   1.689221935
  H   -4.703007645  -1.932614499  -1.950706897
  H   -3.124164879  -1.382473232  -1.306787134
  H   -3.762908264  -3.014040208  -0.938470872
  C   -4.952219902  -0.098155683   1.834941719
  N   -4.223847942  -0.563054336   0.659214454
  N   -4.752597653  -1.504470663   0.070844097
  C   -4.019796832  -1.967509886  -1.102621954
