27
charge=0 charge_a=0 charge_b=0 selection_a=1-13 selection_b=14-27 scaling=1.5 benchmark_Eint=-4.489 benchmark_unit=kcal/mol group=OH-N
  H   -3.959372696  -1.614398856   0.000000000
  H   -3.806679034   2.677238690   0.000000000
  H   -5.118408606   0.573828446   0.000000000
  H   -0.183877782   0.391867706   0.000000000
  H   -0.456340610  -1.926367398   0.000000000
  H   -1.330298696   2.563055300   0.000000000
  C   -3.304116829   1.721109194   0.000000000
  C   -4.037705605   0.538935869   0.000000000
  C   -3.398148147  -0.691216020   0.000000000
  C   -2.004879281  -0.752853442   0.000000000
  C   -1.263283200   0.428830113   0.000000000
  C   -1.916819462   1.654712258   0.000000000
  O   -1.430955865  -1.983180262   0.000000000
  H    3.109937968  -0.891920824   2.140072505
  H    4.579991856   2.514987664   0.000000000
  H    4.088543286   1.365187936   2.138917637
  H    3.109937968  -0.891920824  -2.140072505
  H    2.597240154  -2.853120986   0.827414162
  H    4.088543286   1.365187936  -2.138917637
  H    2.597240154  -2.853120986  -0.827414162
  C    4.158095432   1.520988526   0.000000000
  C    3.882403100   0.874215926   1.198537718
  C    3.336857242  -0.401273674   1.202959388
  C    3.060351328  -1.049163006   0.000000000
  C    3.336857242  -0.401273674  -1.202959388
  C    3.882403100   0.874215926  -1.198537718
  N    2.417062196  -2.304112334   0.000000000
