19
charge=0 charge_a=0 charge_b=0 selection_a=1-13 selection_b=14-19 scaling=0.85 benchmark_Eint=-5.201 benchmark_unit=kcal/mol group=OH-N
  H   -2.439177621  -2.210346672   0.000018357
  H   -4.008790302   1.787475803   0.000003146
  H   -4.373927693  -0.664033974   0.000024254
  H    0.228728719   1.124579004  -0.000021969
  H    0.886082286  -1.082587967  -0.000014410
  H   -1.694292048   2.670342835  -0.000017120
  C   -3.166906768   1.110729256   0.000004292
  C   -3.368590656  -0.265913192   0.000014910
  C   -2.292424837  -1.140000761   0.000011715
  C   -0.989915034  -0.641523239  -0.000002312
  C   -0.780794753   0.738333336  -0.000011307
  C   -1.867874420   1.602922733  -0.000008246
  O    0.028473775  -1.535841893  -0.000007592
  H    5.027714740   1.078442953  -0.885889689
  H    5.552311140  -0.363200680   0.000042898
  H    5.027678184   1.078451475   0.885939954
  C    4.853036901   0.470822502   0.000024448
  C    3.488861974  -0.026401047  -0.000001318
  N    2.412255201  -0.419924919  -0.000021438
