27
charge=0 charge_a=0 charge_b=0 selection_a=1-13 selection_b=14-27 scaling=0.85 benchmark_Eint=-6.610 benchmark_unit=kcal/mol group=OH-N
  H   -3.959372696  -1.614398856   0.000000000
  H   -3.806679034   2.677238690   0.000000000
  H   -5.118408606   0.573828446   0.000000000
  H   -0.183877782   0.391867706   0.000000000
  H   -0.456340610  -1.926367398   0.000000000
  H   -1.330298696   2.563055300   0.000000000
  C   -3.304116829   1.721109194   0.000000000
  C   -4.037705605   0.538935869   0.000000000
  C   -3.398148147  -0.691216020   0.000000000
  C   -2.004879281  -0.752853442   0.000000000
  C   -1.263283200   0.428830113   0.000000000
  C   -1.916819462   1.654712258   0.000000000
  O   -1.430955865  -1.983180262   0.000000000
  H    1.864796752  -0.728231352   2.140072505
  H    3.334850640   2.678677137   0.000000000
  H    2.843402070   1.528877409   2.138917637
  H    1.864796752  -0.728231352  -2.140072505
  H    1.352098938  -2.689431513   0.827414162
  H    2.843402070   1.528877409  -2.138917637
  H    1.352098938  -2.689431513  -0.827414162
  C    2.912954216   1.684677999   0.000000000
  C    2.637261883   1.037905399   1.198537718
  C    2.091716025  -0.237584201   1.202959388
  C    1.815210111  -0.885473534   0.000000000
  C    2.091716025  -0.237584201  -1.202959388
  C    2.637261883   1.037905399  -1.198537718
  N    1.171920980  -2.140422861   0.000000000
