23
charge=0 charge_a=0 charge_b=0 selection_a=1-13 selection_b=14-23 scaling=0.9 benchmark_Eint=-7.875 benchmark_unit=kcal/mol group=OH-N
  H    2.349850207   2.014054276  -1.100420968
  H    4.124914881  -1.504252195   0.606987840
  H    4.351327032   0.638118811  -0.618541541
  H   -0.105079366  -0.871404159   0.875309847
  H   -0.899785658   1.034097994  -0.168169270
  H    1.881332268  -2.247397120   1.348462936
  C    3.253595969  -0.901816780   0.396357907
  C    3.377332815   0.301604871  -0.291272257
  C    2.263221760   1.079355438  -0.565696838
  C    0.999415955   0.660152411  -0.149784361
  C    0.870202430  -0.545074684   0.543495393
  C    1.994594292  -1.316466103   0.810103198
  O   -0.058919477   1.454522134  -0.442336970
  H   -2.455839736   0.711818538   2.238406026
  H   -4.030565287   0.200926992   1.547302104
  H   -3.358757674   1.834511776   1.234160887
  H   -2.874773389  -1.054180718  -2.405767945
  H   -1.295930623  -0.504039450  -1.761848182
  H   -1.934674008  -2.135606426  -1.393531920
  C   -3.123985646   0.780278098   1.379880671
  N   -2.395613686   0.315379446   0.204153406
  N   -2.924363397  -0.626036882  -0.384216951
  C   -2.191562576  -1.089076104  -1.557683002
