20
charge=0 charge_a=0 charge_b=0 selection_a=1-6 selection_b=7-20 scaling=1.1 benchmark_Eint=-8.684 benchmark_unit=kcal/mol group=OH-N
  O   -2.348486771  -0.056624773   0.613156522
  H   -1.412690424   0.210139175   0.505412839
  C   -2.950204140  -0.062602351  -0.662438603
  H   -3.976678500  -0.408762548  -0.548850877
  H   -2.440086705  -0.737765341  -1.360088137
  H   -2.976982213   0.935160117  -1.115595138
  H    2.993373425   0.378222400  -1.222101236
  H    3.344961083  -1.151659892  -0.409374753
  H    3.323398084   0.363896059   0.498477106
  H    1.401035024  -2.304066675   0.880141123
  H    1.454882228   2.175408730  -0.975408585
  H    1.807990113   2.189308159   0.753479351
  H    0.203178870   2.647392345   0.177651105
  H    1.045452524  -2.317730779  -0.834579292
  H   -0.203032642  -1.786869657   0.317587980
  C    1.369639898  -0.367630924  -0.022790286
  N    0.557714658   0.599288338   0.119926155
  C    1.034990478   1.967887546   0.012689975
  C    0.859581113  -1.773422041   0.094033528
  C    2.841621656  -0.194369843  -0.305920843
