20
charge=0 charge_a=0 charge_b=0 selection_a=1-13 selection_b=14-20 scaling=1.05 benchmark_Eint=-10.478 benchmark_unit=kcal/mol group=OH-N
  H   -1.271006919   2.363282141   0.000000023
  H   -3.956804210  -0.988131399   0.000000175
  H   -3.576327021   1.461273531   0.000000084
  H    0.283363921  -1.616053905  -0.000000153
  H    1.588962659   0.290277336  -0.000000005
  H   -2.008693365  -2.518293846  -0.000000071
  C   -2.951950437  -0.592075473   0.000000068
  C   -2.734635982   0.782414767   0.000000047
  C   -1.447763427   1.297426125   0.000000006
  C   -0.348444984   0.436949550  -0.000000053
  C   -0.563212734  -0.943690624  -0.000000087
  C   -1.857723687  -1.447419074  -0.000000040
  O    0.886811640   0.984338507  -0.000000044
  N    3.162071237  -0.787602831   0.000000091
  H    3.196506330  -1.389606790   0.812824877
  H    3.196506416  -1.389607095  -0.812824465
  C    4.291591412   0.153380198  -0.000000006
  H    4.220199730   0.792419415  -0.877562284
  H    5.271896667  -0.329521751   0.000000139
  H    4.220199613   0.792419711   0.877562048
