17
charge=0 charge_a=0 charge_b=0 selection_a=1-13 selection_b=14-17 scaling=0.8 benchmark_Eint=-4.297 benchmark_unit=kcal/mol group=OH-N
  H    0.894824913   2.354358297   0.000000000
  H    3.338292558  -1.177585512   0.000000000
  H    3.131043504   1.292625685   0.000000000
  H   -0.935404511  -1.505728764   0.000000000
  H   -2.100960848   0.495868303   0.000000000
  H    1.287388580  -2.566904798   0.000000000
  C    2.363789427  -0.711835886   0.000000000
  C    2.243794372   0.674554758   0.000000000
  C    0.996386812   1.278771751   0.000000000
  C   -0.160276010   0.497453957   0.000000000
  C   -0.043802881  -0.894545334   0.000000000
  C    1.212208404  -1.488074627   0.000000000
  O   -1.353589320   1.133113384   0.000000000
  N   -3.353269655  -0.311528027   0.000000000
  H   -4.133014515   0.334642248   0.000000000
  H   -3.449121883  -0.901932348   0.816949661
  H   -3.449121883  -0.901932348  -0.816949661
