23
charge=0 charge_a=0 charge_b=0 selection_a=1-13 selection_b=14-23 scaling=1.5 benchmark_Eint=-5.914 benchmark_unit=kcal/mol group=OH-N
  H   -1.749137853  -2.321378372  -0.507903990
  H   -4.156128557   1.195838864   0.022547296
  H   -3.963129635  -1.214484474  -0.523274027
  H    0.084738982   1.370590325   0.613566285
  H    1.245908210  -0.587960312   0.211225926
  H   -2.113820917   2.478206375   0.589500289
  C   -3.191350583   0.710338754   0.029440534
  C   -3.079231238  -0.642642774  -0.276259519
  C   -1.844178713  -1.271742120  -0.270160033
  C   -0.691065478  -0.550678404   0.045825781
  C   -0.801351847   0.807186950   0.357304449
  C   -2.044488758   1.426831394   0.345826106
  O    0.490203787  -1.205236905   0.039072874
  H    3.447600962   0.936165744  -1.748958056
  H    4.575342182   2.093768010  -1.025742332
  H    2.821104124   2.345230174  -0.901177334
  H    3.566388406   1.422539246   1.135627250
  H    4.514254770  -0.710504688   1.392644650
  H    4.466506290  -0.930169247  -0.354039468
  H    5.597278264   0.236191663   0.349529010
  C    3.608419768   1.594234384  -0.895892112
  N    3.531908716   0.807054601   0.333510016
  C    4.592807526  -0.193633544   0.438576108
