20
charge=0 charge_a=0 charge_b=0 selection_a=1-6 selection_b=7-20 scaling=0.9 benchmark_Eint=-8.034 benchmark_unit=kcal/mol group=OH-N
  O   -2.348486771  -0.056624773   0.613156522
  H   -1.412690424   0.210139175   0.505412839
  C   -2.950204140  -0.062602351  -0.662438603
  H   -3.976678500  -0.408762548  -0.548850877
  H   -2.440086705  -0.737765341  -1.360088137
  H   -2.976982213   0.935160117  -1.115595138
  H    2.635117955   0.307468006  -1.152012748
  H    2.986705613  -1.222414286  -0.339286265
  H    2.965142614   0.293141665   0.568565594
  H    1.042779554  -2.374821069   0.950229611
  H    1.096626758   2.104654336  -0.905320097
  H    1.449734643   2.118553765   0.823567839
  H   -0.155076600   2.576637951   0.247739593
  H    0.687197054  -2.388485173  -0.764490804
  H   -0.561288112  -1.857624051   0.387676468
  C    1.011384428  -0.438385318   0.047298202
  N    0.199459188   0.528533944   0.190014643
  C    0.676735008   1.897133152   0.082778463
  C    0.501325643  -1.844176435   0.164122016
  C    2.483366186  -0.265124237  -0.235832355
