23
charge=0 charge_a=0 charge_b=0 selection_a=1-13 selection_b=14-23 scaling=1.1 benchmark_Eint=-8.420 benchmark_unit=kcal/mol group=OH-N
  H    2.349850207   2.014054276  -1.100420968
  H    4.124914881  -1.504252195   0.606987840
  H    4.351327032   0.638118811  -0.618541541
  H   -0.105079366  -0.871404159   0.875309847
  H   -0.899785658   1.034097994  -0.168169270
  H    1.881332268  -2.247397120   1.348462936
  C    3.253595969  -0.901816780   0.396357907
  C    3.377332815   0.301604871  -0.291272257
  C    2.263221760   1.079355438  -0.565696838
  C    0.999415955   0.660152411  -0.149784361
  C    0.870202430  -0.545074684   0.543495393
  C    1.994594292  -1.316466103   0.810103198
  O   -0.058919477   1.454522134  -0.442336970
  H   -2.788245964   0.552103304   2.321144398
  H   -4.362971515   0.041211758   1.630040476
  H   -3.691163902   1.674796544   1.316899259
  H   -3.207179617  -1.213895950  -2.323029573
  H   -1.628336851  -0.663754684  -1.679109810
  H   -2.267080236  -2.295321660  -1.310793548
  C   -3.456391874   0.620562866   1.462619043
  N   -2.728019914   0.155664212   0.286891778
  N   -3.256769625  -0.785752114  -0.301478579
  C   -2.523968804  -1.248791338  -1.474944630
