23
charge=0 charge_a=0 charge_b=0 selection_a=1-13 selection_b=14-23 scaling=0.95 benchmark_Eint=-11.443 benchmark_unit=kcal/mol group=OH-N
  H   -1.749137853  -2.321378372  -0.507903990
  H   -4.156128557   1.195838864   0.022547296
  H   -3.963129635  -1.214484474  -0.523274027
  H    0.084738982   1.370590325   0.613566285
  H    1.245908210  -0.587960312   0.211225926
  H   -2.113820917   2.478206375   0.589500289
  C   -3.191350583   0.710338754   0.029440534
  C   -3.079231238  -0.642642774  -0.276259519
  C   -1.844178713  -1.271742120  -0.270160033
  C   -0.691065478  -0.550678404   0.045825781
  C   -0.801351847   0.807186950   0.357304449
  C   -2.044488758   1.426831394   0.345826106
  O    0.490203787  -1.205236905   0.039072874
  H    2.609400777   0.424660276  -1.793795556
  H    3.737141997   1.582262542  -1.070579832
  H    1.982903938   1.833724706  -0.946014834
  H    2.728188221   0.911033778   1.090789751
  H    3.676054584  -1.222010156   1.347807151
  H    3.628306104  -1.441674715  -0.398876967
  H    4.759078079  -0.275313805   0.304691510
  C    2.770219583   1.082728916  -0.940729611
  N    2.693708530   0.295549133   0.288672517
  C    3.754607340  -0.705139012   0.393738608
