13
charge=0 charge_a=0 charge_b=0 selection_a=1-6 selection_b=7-13 scaling=0.85 benchmark_Eint=-5.191 benchmark_unit=kcal/mol group=OH-N
  O    1.651562762  -0.286250407   0.289854804
  H    1.237863194   0.583482002   0.341251930
  C    2.946806533  -0.155857249  -0.278087310
  H    3.372254578  -1.154759256  -0.344109428
  H    3.602360868   0.458524379   0.344144862
  H    2.909844818   0.273252962  -1.282777796
  H   -1.436705113  -1.631373401   1.309182123
  H   -0.039781712  -1.771715509   0.194519884
  H   -1.634932656  -2.470807311  -0.256312839
  C   -1.119092125  -1.678129781   0.271067047
  O   -1.539778381  -0.444144807  -0.404804793
  C   -0.912646365   0.612416033  -0.055688665
  N   -0.348538503   1.578051416   0.237580723
