27
charge=0 charge_a=0 charge_b=0 selection_a=1-13 selection_b=14-27 scaling=0.8 benchmark_Eint=-3.716 benchmark_unit=kcal/mol group=OH-N
  H   -3.959372696  -1.614398856   0.000000000
  H   -3.806679034   2.677238690   0.000000000
  H   -5.118408606   0.573828446   0.000000000
  H   -0.183877782   0.391867706   0.000000000
  H   -0.456340610  -1.926367398   0.000000000
  H   -1.330298696   2.563055300   0.000000000
  C   -3.304116829   1.721109194   0.000000000
  C   -4.037705605   0.538935869   0.000000000
  C   -3.398148147  -0.691216020   0.000000000
  C   -2.004879281  -0.752853442   0.000000000
  C   -1.263283200   0.428830113   0.000000000
  C   -1.916819462   1.654712258   0.000000000
  O   -1.430955865  -1.983180262   0.000000000
  H    1.769016659  -0.715639855   2.140072505
  H    3.239070547   2.691268634   0.000000000
  H    2.747621977   1.541468906   2.138917637
  H    1.769016659  -0.715639855  -2.140072505
  H    1.256318845  -2.676840016   0.827414162
  H    2.747621977   1.541468906  -2.138917637
  H    1.256318845  -2.676840016  -0.827414162
  C    2.817174123   1.697269496   0.000000000
  C    2.541481790   1.050496896   1.198537718
  C    1.995935932  -0.224992704   1.202959388
  C    1.719430018  -0.872882037   0.000000000
  C    1.995935932  -0.224992704  -1.202959388
  C    2.541481790   1.050496896  -1.198537718
  N    1.076140887  -2.127831364   0.000000000
