13
charge=0 charge_a=0 charge_b=0 selection_a=1-6 selection_b=7-13 scaling=0.8 benchmark_Eint=-3.129 benchmark_unit=kcal/mol group=OH-N
  O    1.651562762  -0.286250407   0.289854804
  H    1.237863194   0.583482002   0.341251930
  C    2.946806533  -0.155857249  -0.278087310
  H    3.372254578  -1.154759256  -0.344109428
  H    3.602360868   0.458524379   0.344144862
  H    2.909844818   0.273252962  -1.282777796
  H   -1.343387366  -1.689877484   1.315280429
  H    0.053536035  -1.830219592   0.200618190
  H   -1.541614909  -2.529311394  -0.250214533
  C   -1.025774378  -1.736633864   0.277165353
  O   -1.446460634  -0.502648890  -0.398706487
  C   -0.819328618   0.553911950  -0.049590359
  N   -0.255220756   1.519547333   0.243679029
