23
charge=0 charge_a=0 charge_b=0 selection_a=1-13 selection_b=14-23 scaling=1.0 benchmark_Eint=-8.825 benchmark_unit=kcal/mol group=OH-N
  H    2.349850207   2.014054276  -1.100420968
  H    4.124914881  -1.504252195   0.606987840
  H    4.351327032   0.638118811  -0.618541541
  H   -0.105079366  -0.871404159   0.875309847
  H   -0.899785658   1.034097994  -0.168169270
  H    1.881332268  -2.247397120   1.348462936
  C    3.253595969  -0.901816780   0.396357907
  C    3.377332815   0.301604871  -0.291272257
  C    2.263221760   1.079355438  -0.565696838
  C    0.999415955   0.660152411  -0.149784361
  C    0.870202430  -0.545074684   0.543495393
  C    1.994594292  -1.316466103   0.810103198
  O   -0.058919477   1.454522134  -0.442336970
  H   -2.622042850   0.631960921   2.279775212
  H   -4.196768401   0.121069375   1.588671290
  H   -3.524960788   1.754654160   1.275530073
  H   -3.040976503  -1.134038334  -2.364398759
  H   -1.462133737  -0.583897067  -1.720478996
  H   -2.100877122  -2.215464043  -1.352162734
  C   -3.290188760   0.700420482   1.421249857
  N   -2.561816800   0.235521829   0.245522592
  N   -3.090566511  -0.705894498  -0.342847765
  C   -2.357765690  -1.168933721  -1.516313816
