13
charge=0 charge_a=0 charge_b=0 selection_a=1-6 selection_b=7-13 scaling=2.0 benchmark_Eint=-1.380 benchmark_unit=kcal/mol group=OH-N
  O    1.651562762  -0.286250407   0.289854804
  H    1.237863194   0.583482002   0.341251930
  C    2.946806533  -0.155857249  -0.278087310
  H    3.372254578  -1.154759256  -0.344109428
  H    3.602360868   0.458524379   0.344144862
  H    2.909844818   0.273252962  -1.282777796
  H   -3.583013292  -0.285779487   1.168921078
  H   -2.186089891  -0.426121595   0.054258839
  H   -3.781240835  -1.125213397  -0.396573884
  C   -3.265400304  -0.332535867   0.130806002
  O   -3.686086560   0.901449107  -0.545065838
  C   -3.058954544   1.958009947  -0.195949710
  N   -2.494846682   2.923645330   0.097319678
