19
charge=0 charge_a=0 charge_b=0 selection_a=1-6 selection_b=7-19 scaling=1.1 benchmark_Eint=-8.101 benchmark_unit=kcal/mol group=OH-N
  O   -1.870564293  -0.756998080   0.000000000
  H   -0.924380728  -0.504380189   0.000000000
  C   -2.642544109   0.423845411  -0.000000000
  H   -3.693626155   0.138881740   0.000000000
  H   -2.460648385   1.040868745  -0.887998323
  H   -2.460648385   1.040868745   0.887998323
  H    2.356731672   1.139450385   1.290437192
  H    1.041385416   0.247849648   2.082411001
  H    0.687435083   1.734257192   1.198625865
  H    0.687435083   1.734257192  -1.198625865
  H    2.356731672   1.139450385  -1.290437192
  H    1.041385416   0.247849648  -2.082411001
  H    2.888688815  -1.017773028   0.000000000
  H    1.544519646  -1.772161898  -0.882114329
  C    1.302749620   0.836075285   1.204615285
  N    1.048364143   0.058138282  -0.000000000
  C    1.302749620   0.836075285  -1.204615285
  C    1.802011218  -1.188826419   0.000000000
  H    1.544519646  -1.772161898   0.882114329
