27
charge=0 charge_a=0 charge_b=0 selection_a=1-13 selection_b=14-27 scaling=1.1 benchmark_Eint=-8.819 benchmark_unit=kcal/mol group=OH-N
  H   -3.959372696  -1.614398856   0.000000000
  H   -3.806679034   2.677238690   0.000000000
  H   -5.118408606   0.573828446   0.000000000
  H   -0.183877782   0.391867706   0.000000000
  H   -0.456340610  -1.926367398   0.000000000
  H   -1.330298696   2.563055300   0.000000000
  C   -3.304116829   1.721109194   0.000000000
  C   -4.037705605   0.538935869   0.000000000
  C   -3.398148147  -0.691216020   0.000000000
  C   -2.004879281  -0.752853442   0.000000000
  C   -1.263283200   0.428830113   0.000000000
  C   -1.916819462   1.654712258   0.000000000
  O   -1.430955865  -1.983180262   0.000000000
  H    2.343697220  -0.791188842   2.140072505
  H    3.813751108   2.615719647   0.000000000
  H    3.322302538   1.465919919   2.138917637
  H    2.343697220  -0.791188842  -2.140072505
  H    1.830999406  -2.752389003   0.827414162
  H    3.322302538   1.465919919  -2.138917637
  H    1.830999406  -2.752389003  -0.827414162
  C    3.391854684   1.621720509   0.000000000
  C    3.116162351   0.974947909   1.198537718
  C    2.570616493  -0.300541691   1.202959388
  C    2.294110579  -0.948431024   0.000000000
  C    2.570616493  -0.300541691  -1.202959388
  C    3.116162351   0.974947909  -1.198537718
  N    1.650821448  -2.203380351   0.000000000
