20
charge=0 charge_a=0 charge_b=0 selection_a=1-13 selection_b=14-20 scaling=2.0 benchmark_Eint=-2.235 benchmark_unit=kcal/mol group=OH-N
  H   -1.271006919   2.363282141   0.000000023
  H   -3.956804210  -0.988131399   0.000000175
  H   -3.576327021   1.461273531   0.000000084
  H    0.283363921  -1.616053905  -0.000000153
  H    1.588962659   0.290277336  -0.000000005
  H   -2.008693365  -2.518293846  -0.000000071
  C   -2.951950437  -0.592075473   0.000000068
  C   -2.734635982   0.782414767   0.000000047
  C   -1.447763427   1.297426125   0.000000006
  C   -0.348444984   0.436949550  -0.000000053
  C   -0.563212734  -0.943690624  -0.000000087
  C   -1.857723687  -1.447419074  -0.000000040
  O    0.886811640   0.984338507  -0.000000044
  N    4.585359951  -1.762827744   0.000000177
  H    4.619795044  -2.364831703   0.812824963
  H    4.619795130  -2.364832008  -0.812824379
  C    5.714880126  -0.821844715   0.000000080
  H    5.643488444  -0.182805498  -0.877562198
  H    6.695185381  -1.304746664   0.000000225
  H    5.643488327  -0.182805202   0.877562134
