19
charge=0 charge_a=0 charge_b=0 selection_a=1-6 selection_b=7-19 scaling=1.0 benchmark_Eint=-8.573 benchmark_unit=kcal/mol group=OH-N
  O   -1.870564293  -0.756998080   0.000000000
  H   -0.924380728  -0.504380189   0.000000000
  C   -2.642544109   0.423845411  -0.000000000
  H   -3.693626155   0.138881740   0.000000000
  H   -2.460648385   1.040868745  -0.887998323
  H   -2.460648385   1.040868745   0.887998323
  H    2.177391229   1.088312342   1.290437192
  H    0.862044973   0.196711605   2.082411001
  H    0.508094640   1.683119149   1.198625865
  H    0.508094640   1.683119149  -1.198625865
  H    2.177391229   1.088312342  -1.290437192
  H    0.862044973   0.196711605  -2.082411001
  H    2.709348372  -1.068911071   0.000000000
  H    1.365179203  -1.823299941  -0.882114329
  C    1.123409177   0.784937242   1.204615285
  N    0.869023700   0.007000239  -0.000000000
  C    1.123409177   0.784937242  -1.204615285
  C    1.622670775  -1.239964462   0.000000000
  H    1.365179203  -1.823299941   0.882114329
