23
charge=0 charge_a=0 charge_b=0 selection_a=1-13 selection_b=14-23 scaling=0.8 benchmark_Eint=-5.996 benchmark_unit=kcal/mol group=OH-N
  H   -1.749137853  -2.321378372  -0.507903990
  H   -4.156128557   1.195838864   0.022547296
  H   -3.963129635  -1.214484474  -0.523274027
  H    0.084738982   1.370590325   0.613566285
  H    1.245908210  -0.587960312   0.211225926
  H   -2.113820917   2.478206375   0.589500289
  C   -3.191350583   0.710338754   0.029440534
  C   -3.079231238  -0.642642774  -0.276259519
  C   -1.844178713  -1.271742120  -0.270160033
  C   -0.691065478  -0.550678404   0.045825781
  C   -0.801351847   0.807186950   0.357304449
  C   -2.044488758   1.426831394   0.345826106
  O    0.490203787  -1.205236905   0.039072874
  H    2.380800727   0.285158785  -1.806023965
  H    3.508541947   1.442761051  -1.082808241
  H    1.754303888   1.694223215  -0.958243243
  H    2.499588171   0.771532287   1.078561342
  H    3.447454534  -1.361511647   1.335578742
  H    3.399706054  -1.581176206  -0.411105376
  H    4.530478029  -0.414815296   0.292463101
  C    2.541619533   0.943227425  -0.952958020
  N    2.465108480   0.156047642   0.276444108
  C    3.526007290  -0.844640503   0.381510199
