20
charge=0 charge_a=0 charge_b=0 selection_a=1-13 selection_b=14-20 scaling=1.05 benchmark_Eint=-6.780 benchmark_unit=kcal/mol group=OH-N
  H   -2.443634485  -2.255898145  -0.445236821
  H   -4.270789734   1.592231535   0.100910773
  H   -4.458248014  -0.814767141  -0.457177579
  H   -0.056080972   1.092127603   0.711530285
  H    0.763892894  -1.010682022   0.233392758
  H   -2.056227988   2.536166420   0.683037272
  C   -3.393928376   0.961737628   0.106506328
  C   -3.496206765  -0.390313031  -0.205970103
  C   -2.374965878  -1.205686593  -0.201808342
  C   -1.128957035  -0.670726618   0.120881850
  C   -1.019620289   0.682269919   0.442279295
  C   -2.150907609   1.489131374   0.430467880
  O   -0.059634231  -1.509378427   0.109649652
  H    2.630577647   1.768147463  -1.553919392
  H    2.818516260   0.153630695  -2.285279190
  H    1.217482072   0.722993674  -1.781136976
  C    2.275002431   0.737752355  -1.542540367
  N    2.408293912   0.143413713  -0.199249767
  N    3.542712504   0.114205210   0.270772987
  N    4.538127417   0.042491132   0.793308204
