24
charge=0 charge_a=0 charge_b=0 selection_a=1-13 selection_b=14-24 scaling=0.8 benchmark_Eint=-5.014 benchmark_unit=kcal/mol group=OH-N
  H    3.303210440   2.046632879   0.749803277
  H    4.766640395  -1.799880816  -0.478515488
  H    5.191006827   0.491295572   0.367567865
  H    0.564940914  -0.953753511  -0.572734045
  H   -0.058476609   1.138489619   0.192638173
  H    2.438898508  -2.509230899  -0.943411527
  C    3.944945303  -1.118955631  -0.311614404
  C    4.179587893   0.167995779   0.162937982
  C    3.129558610   1.046493199   0.379823061
  C    1.816942132   0.647126057   0.121930200
  C    1.577398724  -0.642919890  -0.358920478
  C    2.638724970  -1.514032103  -0.570112038
  O    0.827039265   1.538667019   0.351279564
  H   -3.277341751  -1.674123380   1.688859262
  H   -1.004568565  -0.664253178   1.658489628
  C   -3.957276421  -0.477882369   0.028539195
  C   -3.028694769  -0.914276023   0.963199226
  C   -1.760559980  -0.351793668   0.949639241
  N   -1.395988365   0.589528861   0.078240658
  C   -2.291470663   1.006036118  -0.817261760
  C   -3.582681164   0.501647407  -0.880418946
  H   -1.958447237   1.770829578  -1.506662818
  H   -4.273042198   0.870006930  -1.624414336
  H   -4.954520772  -0.893762763   0.008739740
