7
charge=0 charge_a=0 charge_b=0 selection_a=1-3 selection_b=4-7 scaling=1.1 benchmark_Eint=-6.242 benchmark_unit=kcal/mol group=OH-N
  O   -1.470668174   0.057604709   0.000000000
  H   -0.502275126  -0.054060965   0.000000000
  H   -1.831636709  -0.830709539   0.000000000
  N    1.650826836  -0.008470180   0.000000000
  H    1.861528744   0.981913883   0.000000000
  H    2.091762822  -0.411894913  -0.816838066
  H    2.091762822  -0.411894913   0.816838066
