24
charge=0 charge_a=0 charge_b=0 selection_a=1-13 selection_b=14-24 scaling=0.95 benchmark_Eint=-10.449 benchmark_unit=kcal/mol group=OH-N
  H    3.303210440   2.046632879   0.749803277
  H    4.766640395  -1.799880816  -0.478515488
  H    5.191006827   0.491295572   0.367567865
  H    0.564940914  -0.953753511  -0.572734045
  H   -0.058476609   1.138489619   0.192638173
  H    2.438898508  -2.509230899  -0.943411527
  C    3.944945303  -1.118955631  -0.311614404
  C    4.179587893   0.167995779   0.162937982
  C    3.129558610   1.046493199   0.379823061
  C    1.816942132   0.647126057   0.121930200
  C    1.577398724  -0.642919890  -0.358920478
  C    2.638724970  -1.514032103  -0.570112038
  O    0.827039265   1.538667019   0.351279564
  H   -3.528125205  -1.777053523   1.667409728
  H   -1.255352019  -0.767183321   1.637040094
  C   -4.208059875  -0.580812512   0.007089661
  C   -3.279478223  -1.017206166   0.941749692
  C   -2.011343434  -0.454723811   0.928189707
  N   -1.646771819   0.486598718   0.056791124
  C   -2.542254117   0.903105975  -0.838711294
  C   -3.833464618   0.398717264  -0.901868480
  H   -2.209230691   1.667899435  -1.528112352
  H   -4.523825652   0.767076787  -1.645863870
  H   -5.205304226  -0.996692906  -0.012709794
