24
charge=0 charge_a=0 charge_b=0 selection_a=1-13 selection_b=14-24 scaling=2.0 benchmark_Eint=-2.399 benchmark_unit=kcal/mol group=OH-N
  H    3.303210440   2.046632879   0.749803277
  H    4.766640395  -1.799880816  -0.478515488
  H    5.191006827   0.491295572   0.367567865
  H    0.564940914  -0.953753511  -0.572734045
  H   -0.058476609   1.138489619   0.192638173
  H    2.438898508  -2.509230899  -0.943411527
  C    3.944945303  -1.118955631  -0.311614404
  C    4.179587893   0.167995779   0.162937982
  C    3.129558610   1.046493199   0.379823061
  C    1.816942132   0.647126057   0.121930200
  C    1.577398724  -0.642919890  -0.358920478
  C    2.638724970  -1.514032103  -0.570112038
  O    0.827039265   1.538667019   0.351279564
  H   -5.283609385  -2.497564518   1.517262989
  H   -3.010836199  -1.487694316   1.486893355
  C   -5.963544055  -1.301323507  -0.143057078
  C   -5.034962403  -1.737717161   0.791602953
  C   -3.766827614  -1.175234806   0.778042968
  N   -3.402255999  -0.233912277  -0.093355615
  C   -4.297738297   0.182594980  -0.988858033
  C   -5.588948798  -0.321793731  -1.052015219
  H   -3.964714871   0.947388440  -1.678259091
  H   -6.279309832   0.046565792  -1.796010609
  H   -6.960788406  -1.717203901  -0.162856533
