24
charge=0 charge_a=0 charge_b=0 selection_a=1-13 selection_b=14-24 scaling=1.0 benchmark_Eint=-10.722 benchmark_unit=kcal/mol group=OH-N
  H    3.303210440   2.046632879   0.749803277
  H    4.766640395  -1.799880816  -0.478515488
  H    5.191006827   0.491295572   0.367567865
  H    0.564940914  -0.953753511  -0.572734045
  H   -0.058476609   1.138489619   0.192638173
  H    2.438898508  -2.509230899  -0.943411527
  C    3.944945303  -1.118955631  -0.311614404
  C    4.179587893   0.167995779   0.162937982
  C    3.129558610   1.046493199   0.379823061
  C    1.816942132   0.647126057   0.121930200
  C    1.577398724  -0.642919890  -0.358920478
  C    2.638724970  -1.514032103  -0.570112038
  O    0.827039265   1.538667019   0.351279564
  H   -3.611719690  -1.811363570   1.660259883
  H   -1.338946504  -0.801493368   1.629890249
  C   -4.291654360  -0.615122559  -0.000060184
  C   -3.363072708  -1.051516213   0.934599847
  C   -2.094937919  -0.489033858   0.921039862
  N   -1.730366304   0.452288671   0.049641279
  C   -2.625848602   0.868795928  -0.845861139
  C   -3.917059103   0.364407217  -0.909018325
  H   -2.292825176   1.633589388  -1.535262197
  H   -4.607420137   0.732766740  -1.653013715
  H   -5.288898711  -1.031002953  -0.019859639
