17
charge=0 charge_a=0 charge_b=0 selection_a=1-3 selection_b=4-17 scaling=1.25 benchmark_Eint=-4.401 benchmark_unit=kcal/mol group=OH-N
  O   -3.334474181  -0.000000000   1.106021140
  H   -2.729465437  -0.000000000   0.346198096
  H   -2.765185049  -0.000000000   1.878242025
  H    0.257502603   2.140415839  -0.948853834
  H    3.569905590   0.000000000   0.724860936
  H    2.453765882   2.138797359   0.158942254
  H    0.257502603  -2.140415839  -0.948853834
  H   -1.386916576   0.829771094  -2.137946120
  H    2.453765882  -2.138797359   0.158942254
  H   -1.386916576  -0.829771094  -2.137946120
  C    2.606962936   0.000000000   0.236135848
  C    1.979186784   1.198178699  -0.082515401
  C    0.742408461   1.202927930  -0.710808645
  C    0.113608333   0.000000000  -1.033992743
  C    0.742408461  -1.202927930  -0.710808645
  C    1.979186784  -1.198178699  -0.082515401
  N   -1.170170896   0.000000000  -1.607717444
