20
charge=0 charge_a=0 charge_b=0 selection_a=1-13 selection_b=14-20 scaling=1.0 benchmark_Eint=-10.091 benchmark_unit=kcal/mol group=OH-N
  H   -1.804212946  -1.132064683  -1.970909441
  H   -2.955131525   2.050486335   0.674336346
  H   -3.199525773   0.857916176  -1.484319181
  H    0.042802086  -0.776872268   1.862590250
  H    0.784472606  -2.150441082   0.081455154
  H   -1.330734335   1.214231462   2.348636005
  C   -2.351238355   1.180859120   0.460946877
  C   -2.487259123   0.508477526  -0.749948921
  C   -1.713150718  -0.608073900  -1.030648001
  C   -0.789162717  -1.068477330  -0.093403777
  C   -0.661680421  -0.409539892   1.130761360
  C   -1.438579253   0.710842899   1.397998247
  O   -0.046634443  -2.157034633  -0.417297860
  H    1.426835701   1.102796307  -1.920698854
  H    1.537378238   2.731622930  -1.189897379
  H    0.373345606   1.535184454  -0.539597075
  C    1.340880294   1.682839014  -1.006813658
  O    2.395085725   1.266287033  -0.073020712
  C    2.449171783   0.019645994   0.193110670
  N    2.531948017  -1.102685415   0.454989601
