27
charge=0 charge_a=0 charge_b=0 selection_a=1-13 selection_b=14-27 scaling=0.95 benchmark_Eint=-12.539 benchmark_unit=kcal/mol group=OH-N
  H   -2.783582757  -1.797826122  -1.302680977
  H   -4.363813842   1.628619183   0.748816989
  H   -4.702814846  -0.356131896  -0.697605792
  H   -0.183834168   0.701583163   0.985287688
  H    0.519698718  -1.130277403  -0.239025033
  H   -2.089847505   2.145587069   1.584395290
  C   -3.528320233   0.997437401   0.483692064
  C   -3.714972220  -0.117636628  -0.327826018
  C   -2.646934098  -0.931190927  -0.672041334
  C   -1.363332560  -0.640956471  -0.204190946
  C   -1.172946652   0.476801276   0.613926782
  C   -2.251843837   1.284904544   0.949647428
  O   -0.354795344  -1.461185755  -0.568765900
  H    3.971647221   1.249496924   1.040865782
  H    4.259125555   1.746266068  -0.630804835
  H    4.723635587   0.132410949  -0.079891202
  H    2.531356021   1.008584754  -2.414025344
  H    2.918758370  -0.557148470   2.149879285
  H    3.648983553  -1.708043690   1.028835036
  H    2.055626183  -2.035669603   1.715446934
  H    1.748227008   2.103512323  -1.292957915
  H    0.950871691   0.578776831  -1.727869626
  C    2.609041065   0.378375583  -0.375622570
  N    2.042187903  -0.591369615   0.219987106
  C    2.703969100  -1.251731669   1.333815451
  C    1.907215771   1.047053641  -1.519010371
  C    3.966590550   0.913754681   0.002760949
