20
charge=0 charge_a=0 charge_b=0 selection_a=1-13 selection_b=14-20 scaling=1.1 benchmark_Eint=-6.497 benchmark_unit=kcal/mol group=OH-N
  H   -2.443634485  -2.255898145  -0.445236821
  H   -4.270789734   1.592231535   0.100910773
  H   -4.458248014  -0.814767141  -0.457177579
  H   -0.056080972   1.092127603   0.711530285
  H    0.763892894  -1.010682022   0.233392758
  H   -2.056227988   2.536166420   0.683037272
  C   -3.393928376   0.961737628   0.106506328
  C   -3.496206765  -0.390313031  -0.205970103
  C   -2.374965878  -1.205686593  -0.201808342
  C   -1.128957035  -0.670726618   0.120881850
  C   -1.019620289   0.682269919   0.442279295
  C   -2.150907609   1.489131374   0.430467880
  O   -0.059634231  -1.509378427   0.109649652
  H    2.708882458   1.823104402  -1.574521417
  H    2.896821071   0.208587634  -2.305881215
  H    1.295786883   0.777950614  -1.801739001
  C    2.353307242   0.792709294  -1.563142392
  N    2.486598723   0.198370652  -0.219851792
  N    3.621017315   0.169162150   0.250170962
  N    4.616432228   0.097448072   0.772706179
