7
charge=0 charge_a=0 charge_b=0 selection_a=1-3 selection_b=4-7 scaling=1.5 benchmark_Eint=-3.124 benchmark_unit=kcal/mol group=OH-N
  O   -1.470668174   0.057604709   0.000000000
  H   -0.502275126  -0.054060965   0.000000000
  H   -1.831636709  -0.830709539   0.000000000
  N    2.433773004   0.008108287   0.000000000
  H    2.644474912   0.998492350   0.000000000
  H    2.874708990  -0.395316446  -0.816838066
  H    2.874708990  -0.395316446   0.816838066
