9
charge=0 charge_a=0 charge_b=0 selection_a=1-3 selection_b=4-9 scaling=0.95 benchmark_Eint=-4.800 benchmark_unit=kcal/mol group=OH-N
  O    2.079875756  -0.208919275   0.000000000
  H    2.999613891   0.063843842   0.000000000
  H    1.566421342   0.606257085   0.000000000
  H   -1.572674165  -1.538763865   0.886042719
  H   -1.572674165  -1.538763865  -0.886042719
  H   -0.046530335  -1.738413133   0.000000000
  C   -1.015115468  -1.241338310   0.000000000
  C   -0.800342691   0.194881976   0.000000000
  N   -0.585899403   1.323648291   0.000000000
