9
charge=0 charge_a=0 charge_b=0 selection_a=1-3 selection_b=4-9 scaling=0.8 benchmark_Eint=-1.189 benchmark_unit=kcal/mol group=OH-N
  O    2.079875756  -0.208919275   0.000000000
  H    2.999613891   0.063843842   0.000000000
  H    1.566421342   0.606257085   0.000000000
  H   -1.232834047  -1.652036161   0.886042719
  H   -1.232834047  -1.652036161  -0.886042719
  H    0.293309783  -1.851685429   0.000000000
  C   -0.675275350  -1.354610606   0.000000000
  C   -0.460502573   0.081609680   0.000000000
  N   -0.246059285   1.210375995   0.000000000
