13
charge=0 charge_a=0 charge_b=0 selection_a=1-3 selection_b=4-13 scaling=1.1 benchmark_Eint=-5.646 benchmark_unit=kcal/mol group=OH-N
  O    2.536736371   0.182918899  -0.061451462
  H    1.578854572   0.331992874   0.022473871
  H    2.921944478   0.519691564   0.749931716
  H   -0.890971567   2.276729359  -0.857895584
  H   -2.362072677   1.601312997  -0.084932391
  H   -1.017655116   2.271362496   0.894242694
  H   -1.065883887  -2.390675955   0.859822913
  H    0.415758549  -1.735500715   0.087207003
  H   -0.943967632  -2.374224241  -0.889585952
  C   -1.281903569   1.718493567  -0.007334495
  N   -0.598548263   0.429575480   0.035922087
  N   -1.350507579  -0.541474598  -0.022421471
  C   -0.667083905  -1.830781453   0.013797819
