20
charge=0 charge_a=0 charge_b=0 selection_a=1-13 selection_b=14-20 scaling=1.25 benchmark_Eint=-5.239 benchmark_unit=kcal/mol group=OH-N
  H   -2.443634485  -2.255898145  -0.445236821
  H   -4.270789734   1.592231535   0.100910773
  H   -4.458248014  -0.814767141  -0.457177579
  H   -0.056080972   1.092127603   0.711530285
  H    0.763892894  -1.010682022   0.233392758
  H   -2.056227988   2.536166420   0.683037272
  C   -3.393928376   0.961737628   0.106506328
  C   -3.496206765  -0.390313031  -0.205970103
  C   -2.374965878  -1.205686593  -0.201808342
  C   -1.128957035  -0.670726618   0.120881850
  C   -1.019620289   0.682269919   0.442279295
  C   -2.150907609   1.489131374   0.430467880
  O   -0.059634231  -1.509378427   0.109649652
  H    2.943796889   1.987975222  -1.636327492
  H    3.131735502   0.373458454  -2.367687290
  H    1.530701314   0.942821433  -1.863545076
  C    2.588221673   0.957580114  -1.624948467
  N    2.721513154   0.363241472  -0.281657867
  N    3.855931746   0.334032969   0.188364887
  N    4.851346659   0.262318891   0.710900104
