27
charge=0 charge_a=0 charge_b=0 selection_a=1-13 selection_b=14-27 scaling=1.5 benchmark_Eint=-6.952 benchmark_unit=kcal/mol group=OH-N
  H   -2.783582757  -1.797826122  -1.302680977
  H   -4.363813842   1.628619183   0.748816989
  H   -4.702814846  -0.356131896  -0.697605792
  H   -0.183834168   0.701583163   0.985287688
  H    0.519698718  -1.130277403  -0.239025033
  H   -2.089847505   2.145587069   1.584395290
  C   -3.528320233   0.997437401   0.483692064
  C   -3.714972220  -0.117636628  -0.327826018
  C   -2.646934098  -0.931190927  -0.672041334
  C   -1.363332560  -0.640956471  -0.204190946
  C   -1.172946652   0.476801276   0.613926782
  C   -2.251843837   1.284904544   0.949647428
  O   -0.354795344  -1.461185755  -0.568765900
  H    4.853088328   1.561496170   1.306609652
  H    5.140566662   2.058265314  -0.365060964
  H    5.605076694   0.444410195   0.185852668
  H    3.412797128   1.320584000  -2.148281474
  H    3.800199478  -0.245149224   2.415623156
  H    4.530424660  -1.396044444   1.294578906
  H    2.937067290  -1.723670357   1.981190804
  H    2.629668116   2.415511569  -1.027214044
  H    1.832312798   0.890776077  -1.462125756
  C    3.490482172   0.690374829  -0.109878700
  N    2.923629010  -0.279370369   0.485730976
  C    3.585410208  -0.939732423   1.599559322
  C    2.788656878   1.359052887  -1.253266500
  C    4.848031658   1.225753927   0.268504820
