26
charge=0 charge_a=0 charge_b=0 selection_a=1-13 selection_b=14-26 scaling=1.05 benchmark_Eint=-11.972 benchmark_unit=kcal/mol group=OH-N
  H   -2.170926014   2.371192066  -0.000000000
  H   -4.377964093  -1.313127084   0.000000000
  H   -4.332515959   1.165361725  -0.000000000
  H   -0.093664526  -1.361591783   0.000000000
  H    0.949690095   0.705379436  -0.000000000
  H   -2.240145582  -2.565119358   0.000000000
  C   -3.436035652  -0.784634016   0.000000000
  C   -3.406684011   0.606685653  -0.000000000
  C   -2.201488226   1.291218573  -0.000000000
  C   -0.995162098   0.588113374  -0.000000000
  C   -1.021995003  -0.808794901   0.000000000
  C   -2.236071758  -1.483676087   0.000000000
  O    0.153746814   1.297627984  -0.000000000
  H    3.792147803  -1.361985578  -1.284993250
  H    2.598555128  -0.317866674  -2.083731775
  H    2.063578618  -1.751056143  -1.205063990
  H    2.063578618  -1.751056143   1.205063990
  H    3.792147803  -1.361985578   1.284993250
  H    2.598555128  -0.317866674   2.083731775
  H    4.580954534   0.706584119   0.000000000
  H    3.342834639   1.625216023   0.882022298
  C    2.783086941  -0.934313630  -1.206059374
  N    2.620955269  -0.130444755   0.000000000
  C    2.783086941  -0.934313630   1.206059374
  C    3.526458659   1.014908921   0.000000000
  H    3.342834639   1.625216023  -0.882022298
