9
charge=0 charge_a=0 charge_b=0 selection_a=1-3 selection_b=4-9 scaling=2.0 benchmark_Eint=-0.824 benchmark_unit=kcal/mol group=OH-N
  O    2.079875756  -0.208919275   0.000000000
  H    2.999613891   0.063843842   0.000000000
  H    1.566421342   0.606257085   0.000000000
  H   -3.951554988  -0.745857795   0.886042719
  H   -3.951554988  -0.745857795  -0.886042719
  H   -2.425411158  -0.945507063   0.000000000
  C   -3.393996291  -0.448432240   0.000000000
  C   -3.179223514   0.987788046   0.000000000
  N   -2.964780226   2.116554361   0.000000000
