13
charge=0 charge_a=0 charge_b=0 selection_a=1-3 selection_b=4-13 scaling=1.05 benchmark_Eint=-7.808 benchmark_unit=kcal/mol group=OH-N
  O    2.241713569   0.035392689  -0.098710035
  H    1.314614159   0.085381154   0.214834338
  H    2.720020893   0.702117444   0.397201570
  H   -0.796687558   1.252028517  -1.191996834
  H   -2.323685959   1.091688998  -0.310797714
  H   -0.998534656   2.067411287   0.356032414
  H   -0.945911660  -0.013622754   1.442259486
  H   -0.573525438  -2.086428669   0.405991206
  H   -0.543648148  -1.287275739  -1.161188368
  H   -2.071769457  -1.414272434  -0.274803334
  C   -1.234145465   1.160677966  -0.198221568
  N   -0.650724457   0.005072813   0.475390610
  C   -0.990386920  -1.261413563  -0.167831874
