13
charge=0 charge_a=0 charge_b=0 selection_a=1-3 selection_b=4-13 scaling=2.0 benchmark_Eint=-1.381 benchmark_unit=kcal/mol group=OH-N
  O    2.241713569   0.035392689  -0.098710035
  H    1.314614159   0.085381154   0.214834338
  H    2.720020893   0.702117444   0.397201570
  H   -2.574851068   1.179368590  -0.956255446
  H   -4.101849469   1.019029071  -0.075056325
  H   -2.776698166   1.994751360   0.591773802
  H   -2.724075170  -0.086282681   1.678000874
  H   -2.351688948  -2.159088596   0.641732594
  H   -2.321811658  -1.359935666  -0.925446980
  H   -3.849932967  -1.486932361  -0.039061946
  C   -3.012308975   1.088018039   0.037519820
  N   -2.428887967  -0.067587114   0.711131998
  C   -2.768550430  -1.334073490   0.067909514
