13
charge=0 charge_a=0 charge_b=0 selection_a=1-3 selection_b=4-13 scaling=1.0 benchmark_Eint=-7.929 benchmark_unit=kcal/mol group=OH-N
  O    2.241713569   0.035392689  -0.098710035
  H    1.314614159   0.085381154   0.214834338
  H    2.720020893   0.702117444   0.397201570
  H   -0.703100005   1.255852724  -1.204404276
  H   -2.230098406   1.095513205  -0.323205155
  H   -0.904947103   2.071235494   0.343624972
  H   -0.852324107  -0.009798547   1.429852044
  H   -0.479937885  -2.082604462   0.393583764
  H   -0.450060595  -1.283451532  -1.173595810
  H   -1.978181904  -1.410448227  -0.287210776
  C   -1.140557912   1.164502173  -0.210629010
  N   -0.557136904   0.008897020   0.462983168
  C   -0.896799367  -1.257589356  -0.180239316
