27
charge=0 charge_a=0 charge_b=0 selection_a=1-13 selection_b=14-27 scaling=0.9 benchmark_Eint=-11.635 benchmark_unit=kcal/mol group=OH-N
  H   -2.783582757  -1.797826122  -1.302680977
  H   -4.363813842   1.628619183   0.748816989
  H   -4.702814846  -0.356131896  -0.697605792
  H   -0.183834168   0.701583163   0.985287688
  H    0.519698718  -1.130277403  -0.239025033
  H   -2.089847505   2.145587069   1.584395290
  C   -3.528320233   0.997437401   0.483692064
  C   -3.714972220  -0.117636628  -0.327826018
  C   -2.646934098  -0.931190927  -0.672041334
  C   -1.363332560  -0.640956471  -0.204190946
  C   -1.172946652   0.476801276   0.613926782
  C   -2.251843837   1.284904544   0.949647428
  O   -0.354795344  -1.461185755  -0.568765900
  H    3.891516212   1.221133356   1.016707249
  H    4.178994546   1.717902500  -0.654963368
  H    4.643504578   0.104047381  -0.104049735
  H    2.451225012   0.980221186  -2.438183877
  H    2.838627360  -0.585512038   2.125720752
  H    3.568852544  -1.736407258   1.004676503
  H    1.975495174  -2.064033171   1.691288401
  H    1.668095998   2.075148755  -1.317116448
  H    0.870740682   0.550413263  -1.752028159
  C    2.528910056   0.350012015  -0.399781103
  N    1.962056894  -0.619733183   0.195828573
  C    2.623838090  -1.280095237   1.309656918
  C    1.827084762   1.018690073  -1.543168904
  C    3.886459540   0.885391113  -0.021397584
