20
charge=0 charge_a=0 charge_b=0 selection_a=1-13 selection_b=14-20 scaling=1.5 benchmark_Eint=-3.262 benchmark_unit=kcal/mol group=OH-N
  H   -2.443634485  -2.255898145  -0.445236821
  H   -4.270789734   1.592231535   0.100910773
  H   -4.458248014  -0.814767141  -0.457177579
  H   -0.056080972   1.092127603   0.711530285
  H    0.763892894  -1.010682022   0.233392758
  H   -2.056227988   2.536166420   0.683037272
  C   -3.393928376   0.961737628   0.106506328
  C   -3.496206765  -0.390313031  -0.205970103
  C   -2.374965878  -1.205686593  -0.201808342
  C   -1.128957035  -0.670726618   0.120881850
  C   -1.019620289   0.682269919   0.442279295
  C   -2.150907609   1.489131374   0.430467880
  O   -0.059634231  -1.509378427   0.109649652
  H    3.335320941   2.262759920  -1.739337617
  H    3.523259554   0.648243152  -2.470697415
  H    1.922225366   1.217606132  -1.966555201
  C    2.979745725   1.232364812  -1.727958592
  N    3.113037206   0.638026170  -0.384667992
  N    4.247455798   0.608817668   0.085354762
  N    5.242870711   0.537103590   0.607889979
