26
charge=0 charge_a=0 charge_b=0 selection_a=1-13 selection_b=14-26 scaling=1.1 benchmark_Eint=-11.518 benchmark_unit=kcal/mol group=OH-N
  H   -2.170926014   2.371192066  -0.000000000
  H   -4.377964093  -1.313127084   0.000000000
  H   -4.332515959   1.165361725  -0.000000000
  H   -0.093664526  -1.361591783   0.000000000
  H    0.949690095   0.705379436  -0.000000000
  H   -2.240145582  -2.565119358   0.000000000
  C   -3.436035652  -0.784634016   0.000000000
  C   -3.406684011   0.606685653  -0.000000000
  C   -2.201488226   1.291218573  -0.000000000
  C   -0.995162098   0.588113374  -0.000000000
  C   -1.021995003  -0.808794901   0.000000000
  C   -2.236071758  -1.483676087   0.000000000
  O    0.153746814   1.297627984  -0.000000000
  H    3.871731859  -1.401786730  -1.284993250
  H    2.678139184  -0.357667826  -2.083731775
  H    2.143162674  -1.790857295  -1.205063990
  H    2.143162674  -1.790857295   1.205063990
  H    3.871731859  -1.401786730   1.284993250
  H    2.678139184  -0.357667826   2.083731775
  H    4.660538590   0.666782967   0.000000000
  H    3.422418695   1.585414871   0.882022298
  C    2.862670997  -0.974114782  -1.206059374
  N    2.700539325  -0.170245907   0.000000000
  C    2.862670997  -0.974114782   1.206059374
  C    3.606042715   0.975107769   0.000000000
  H    3.422418695   1.585414871  -0.882022298
