17
charge=0 charge_a=0 charge_b=0 selection_a=1-3 selection_b=4-17 scaling=0.9 benchmark_Eint=-4.967 benchmark_unit=kcal/mol group=OH-N
  O   -3.334474181  -0.000000000   1.106021140
  H   -2.729465437  -0.000000000   0.346198096
  H   -2.765185049  -0.000000000   1.878242025
  H   -0.179099868   2.140415839  -0.401757483
  H    3.133303119   0.000000000   1.271957287
  H    2.017163411   2.138797359   0.706038605
  H   -0.179099868  -2.140415839  -0.401757483
  H   -1.823519047   0.829771094  -1.590849769
  H    2.017163411  -2.138797359   0.706038605
  H   -1.823519047  -0.829771094  -1.590849769
  C    2.170360465   0.000000000   0.783232199
  C    1.542584313   1.198178699   0.464580950
  C    0.305805990   1.202927930  -0.163712294
  C   -0.322994138  -0.000000000  -0.486896392
  C    0.305805990  -1.202927930  -0.163712294
  C    1.542584313  -1.198178699   0.464580950
  N   -1.606773367  -0.000000000  -1.060621093
