7
charge=0 charge_a=0 charge_b=0 selection_a=1-3 selection_b=4-7 scaling=1.05 benchmark_Eint=-6.502 benchmark_unit=kcal/mol group=OH-N
  O   -1.470668174   0.057604709   0.000000000
  H   -0.502275126  -0.054060965   0.000000000
  H   -1.831636709  -0.830709539   0.000000000
  N    1.552958565  -0.010542489   0.000000000
  H    1.763660473   0.979841574   0.000000000
  H    1.993894551  -0.413967222  -0.816838066
  H    1.993894551  -0.413967222   0.816838066
