9
charge=0 charge_a=0 charge_b=0 selection_a=1-3 selection_b=4-9 scaling=1.1 benchmark_Eint=-4.454 benchmark_unit=kcal/mol group=OH-N
  O    2.079875756  -0.208919275   0.000000000
  H    2.999613891   0.063843842   0.000000000
  H    1.566421342   0.606257085   0.000000000
  H   -1.912514282  -1.425491569   0.886042719
  H   -1.912514282  -1.425491569  -0.886042719
  H   -0.386370452  -1.625140837   0.000000000
  C   -1.354955585  -1.128066014   0.000000000
  C   -1.140182808   0.308154272   0.000000000
  N   -0.925739520   1.436920587   0.000000000
