13
charge=0 charge_a=0 charge_b=0 selection_a=1-3 selection_b=4-13 scaling=0.9 benchmark_Eint=-7.029 benchmark_unit=kcal/mol group=OH-N
  O    2.241713569   0.035392689  -0.098710035
  H    1.314614159   0.085381154   0.214834338
  H    2.720020893   0.702117444   0.397201570
  H   -0.515924899   1.263501137  -1.229219159
  H   -2.042923300   1.103161618  -0.348020038
  H   -0.717771997   2.078883907   0.318810089
  H   -0.665149001  -0.002150134   1.405037161
  H   -0.292762779  -2.074956049   0.368768881
  H   -0.262885489  -1.275803119  -1.198410693
  H   -1.791006798  -1.402799814  -0.312025659
  C   -0.953382806   1.172150586  -0.235443893
  N   -0.369961798   0.016545433   0.438168285
  C   -0.709624261  -1.249940943  -0.205054199
