13
charge=0 charge_a=0 charge_b=0 selection_a=1-3 selection_b=4-13 scaling=2.0 benchmark_Eint=-0.969 benchmark_unit=kcal/mol group=OH-N
  O    2.536736371   0.182918899  -0.061451462
  H    1.578854572   0.331992874   0.022473871
  H    2.921944478   0.519691564   0.749931716
  H   -2.672482978   2.356569673  -0.846892498
  H   -4.143584088   1.681153311  -0.073929305
  H   -2.799166527   2.351202810   0.905245780
  H   -2.847395298  -2.310835641   0.870825999
  H   -1.365752862  -1.655660401   0.098210089
  H   -2.725479043  -2.294383927  -0.878582866
  C   -3.063414980   1.798333881   0.003668591
  N   -2.380059674   0.509415794   0.046925173
  N   -3.132018990  -0.461634284  -0.011418385
  C   -2.448595316  -1.750941139   0.024800905
