13
charge=0 charge_a=0 charge_b=0 selection_a=1-3 selection_b=4-13 scaling=1.5 benchmark_Eint=-3.703 benchmark_unit=kcal/mol group=OH-N
  O    2.241713569   0.035392689  -0.098710035
  H    1.314614159   0.085381154   0.214834338
  H    2.720020893   0.702117444   0.397201570
  H   -1.638975536   1.217610657  -1.080329861
  H   -3.165973938   1.057271138  -0.199130740
  H   -1.840822634   2.032993427   0.467699387
  H   -1.788199638  -0.048040614   1.553926459
  H   -1.415813416  -2.120846529   0.517658179
  H   -1.385936126  -1.321693599  -1.049521395
  H   -2.914057436  -1.448690294  -0.163136361
  C   -2.076433444   1.126260106  -0.086554595
  N   -1.493012436  -0.029345047   0.587057583
  C   -1.832674898  -1.295831423  -0.056164901
