24
charge=0 charge_a=0 charge_b=0 selection_a=1-13 selection_b=14-24 scaling=0.85 benchmark_Eint=-7.919 benchmark_unit=kcal/mol group=OH-N
  H    3.303210440   2.046632879   0.749803277
  H    4.766640395  -1.799880816  -0.478515488
  H    5.191006827   0.491295572   0.367567865
  H    0.564940914  -0.953753511  -0.572734045
  H   -0.058476609   1.138489619   0.192638173
  H    2.438898508  -2.509230899  -0.943411527
  C    3.944945303  -1.118955631  -0.311614404
  C    4.179587893   0.167995779   0.162937982
  C    3.129558610   1.046493199   0.379823061
  C    1.816942132   0.647126057   0.121930200
  C    1.577398724  -0.642919890  -0.358920478
  C    2.638724970  -1.514032103  -0.570112038
  O    0.827039265   1.538667019   0.351279564
  H   -3.360936236  -1.708433428   1.681709417
  H   -1.088163050  -0.698563226   1.651339783
  C   -4.040870906  -0.512192417   0.021389350
  C   -3.112289254  -0.948586071   0.956049381
  C   -1.844154465  -0.386103716   0.942489396
  N   -1.479582850   0.555218813   0.071090813
  C   -2.375065148   0.971726070  -0.824411605
  C   -3.666275649   0.467337359  -0.887568791
  H   -2.042041722   1.736519530  -1.513812663
  H   -4.356636683   0.835696882  -1.631564181
  H   -5.038115257  -0.928072811   0.001589895
