7
charge=0 charge_a=0 charge_b=0 selection_a=1-3 selection_b=4-7 scaling=0.9 benchmark_Eint=-5.739 benchmark_unit=kcal/mol group=OH-N
  O   -1.470668174   0.057604709   0.000000000
  H   -0.502275126  -0.054060965   0.000000000
  H   -1.831636709  -0.830709539   0.000000000
  N    1.259353752  -0.016759414   0.000000000
  H    1.470055660   0.973624649   0.000000000
  H    1.700289738  -0.420184147  -0.816838066
  H    1.700289738  -0.420184147   0.816838066
