10
charge=0 charge_a=0 charge_b=0 selection_a=1-3 selection_b=4-10 scaling=0.85 benchmark_Eint=-5.228 benchmark_unit=kcal/mol group=OH-N
  O   -1.952573200   0.183687112   0.000000000
  H   -1.074646913  -0.247298404   0.000000000
  H   -2.591802599  -0.530867844   0.000000000
  N    0.503632255  -0.639897552   0.000000000
  H    0.780969589  -1.174258924   0.812943926
  H    0.780969589  -1.174258924  -0.812943926
  C    1.145342716   0.681316830   0.000000000
  H    0.815639201   1.235232047  -0.876570680
  H    2.238570919   0.648888304   0.000000000
  H    0.815639201   1.235232047   0.876570680
