14
charge=0 charge_a=0 charge_b=0 selection_a=1-3 selection_b=4-14 scaling=0.9 benchmark_Eint=-6.103 benchmark_unit=kcal/mol group=OH-N
  O   -3.475931869  -0.000000063  -0.087855349
  H   -2.501930068  -0.000000050  -0.021587774
  H   -3.789910179   0.000001147   0.818290805
  H    1.795777930   2.146980218  -0.032848177
  H   -0.687379465   2.052302036   0.031105109
  C    1.994156562   0.000000003  -0.035996854
  C    1.287572871   1.194262639  -0.017682064
  C   -0.099194779   1.143668234   0.019138468
  N   -0.783729296  -0.000000014   0.038586783
  C   -0.099194801  -1.143668257   0.019138501
  C    1.287572867  -1.194262635  -0.017682039
  H   -0.687379452  -2.052302051   0.031105166
  H    1.795777952  -2.146980206  -0.032848136
  H    3.074518645  -0.000000010  -0.065343711
