14
charge=0 charge_a=0 charge_b=0 selection_a=1-3 selection_b=4-14 scaling=1.25 benchmark_Eint=-5.504 benchmark_unit=kcal/mol group=OH-N
  O   -3.475931869  -0.000000063  -0.087855349
  H   -2.501930068  -0.000000050  -0.021587774
  H   -3.789910179   0.000001147   0.818290805
  H    2.463967119   2.146980232  -0.009446960
  H   -0.019190276   2.052302050   0.054506326
  C    2.662345751   0.000000017  -0.012595637
  C    1.955762060   1.194262653   0.005719153
  C    0.568994410   1.143668248   0.042539685
  N   -0.115540107   0.000000000   0.061988000
  C    0.568994388  -1.143668243   0.042539718
  C    1.955762056  -1.194262621   0.005719178
  H   -0.019190263  -2.052302037   0.054506383
  H    2.463967141  -2.146980192  -0.009446919
  H    3.742707834   0.000000004  -0.041942494
