10
charge=0 charge_a=0 charge_b=0 selection_a=1-3 selection_b=4-10 scaling=2.0 benchmark_Eint=-0.757 benchmark_unit=kcal/mol group=OH-N
  O   -2.734992815  -0.615436303   0.076022684
  H   -1.773433311  -0.649782338  -0.023192102
  H   -3.082764985  -1.193624201  -0.605949093
  H    2.132608433   2.707612902   0.906256022
  H    2.315066225   2.916960274  -0.853688435
  H    0.720942249   2.565061510  -0.156341600
  C    1.784408449   2.373221585  -0.071416413
  N    1.955865367   0.917109976  -0.228049200
  N    3.100486129   0.490398327  -0.120256302
  N    4.110551974  -0.004950770  -0.041782120
