17
charge=0 charge_a=0 charge_b=0 selection_a=1-3 selection_b=4-17 scaling=1.1 benchmark_Eint=-8.060 benchmark_unit=kcal/mol group=OH-N
  O    2.874349788   0.167364362  -0.086939366
  H    1.942388950  -0.128418705  -0.015895281
  H    3.272831708  -0.041384546   0.759968976
  H   -2.751499438  -0.487422053   0.803085318
  H   -2.971486767   1.051589695  -0.038239674
  H   -2.683724560  -0.435927923  -0.946863035
  H   -0.829300208   2.299745696  -0.845401704
  H   -1.124993685  -2.220818632   0.882689288
  H   -1.083201052  -2.197555893  -0.881114973
  H    0.369457970  -2.617924524   0.028838203
  H   -0.885597536   2.292872318   0.904993857
  H    0.618878575   1.832820419   0.072281201
  C   -0.929595690   0.348802403   0.018437653
  N   -0.067994812  -0.584801079   0.047795895
  C   -0.503799144  -1.971164772   0.018003348
  C   -0.464866700   1.774684313   0.040285090
  C   -2.419457291   0.115794876  -0.043154546
