10
charge=0 charge_a=0 charge_b=0 selection_a=1-3 selection_b=4-10 scaling=0.95 benchmark_Eint=-4.576 benchmark_unit=kcal/mol group=OH-N
  O   -2.734992815  -0.615436303   0.076022684
  H   -1.773433311  -0.649782338  -0.023192102
  H   -3.082764985  -1.193624201  -0.605949093
  H    0.174726627   1.884994437   1.013805998
  H    0.357184419   2.094341809  -0.746138459
  H   -1.236939557   1.742443045  -0.048791624
  C   -0.173473357   1.550603120   0.036133563
  N   -0.002016439   0.094491511  -0.120499224
  N    1.142604323  -0.332220138  -0.012706326
  N    2.152670168  -0.827569235   0.065767856
