10
charge=0 charge_a=0 charge_b=0 selection_a=1-3 selection_b=4-10 scaling=2.0 benchmark_Eint=-1.351 benchmark_unit=kcal/mol group=OH-N
  O   -1.952573200   0.183687112   0.000000000
  H   -1.074646913  -0.247298404   0.000000000
  H   -2.591802599  -0.530867844   0.000000000
  N    2.638951129  -1.171061106   0.000000000
  H    2.916288463  -1.705422478   0.812943926
  H    2.916288463  -1.705422478  -0.812943926
  C    3.280661590   0.150153276   0.000000000
  H    2.950958075   0.704068493  -0.876570680
  H    4.373889793   0.117724750   0.000000000
  H    2.950958075   0.704068493   0.876570680
