16
charge=0 charge_a=0 charge_b=0 selection_a=1-3 selection_b=4-16 scaling=1.05 benchmark_Eint=-7.891 benchmark_unit=kcal/mol group=OH-N
  O   -2.456856240  -0.000000000   0.067839251
  H   -1.479185564  -0.000000000   0.148310503
  H   -2.792392285  -0.000000000   0.966017957
  H    1.754590789   0.000000000  -1.700625000
  H    0.220648096   0.881611693  -1.863146778
  H    0.220648096  -0.881611693  -1.863146778
  H    0.559078520  -2.082230858   0.189451429
  H    2.119243847  -1.289308321   0.488375303
  H    0.822734445  -1.200087780   1.695897034
  H    2.119243847   1.289308321   0.488375303
  H    0.822734445   1.200087780   1.695897034
  C    0.688547269   0.000000000  -1.429310572
  N    0.488601339   0.000000000   0.014559573
  C    1.031077301  -1.204433680   0.627062198
  C    1.031077301   1.204433680   0.627062198
  H    0.559078520   2.082230858   0.189451429
