10
charge=0 charge_a=0 charge_b=0 selection_a=1-3 selection_b=4-10 scaling=0.8 benchmark_Eint=-2.867 benchmark_unit=kcal/mol group=OH-N
  O   -2.164066826   0.673628527  -0.058441427
  H   -1.914751889  -0.255799065   0.026437608
  H   -3.043517756   0.674244371  -0.441855628
  H    0.835617831   1.637984977   1.291720725
  H    1.436587816   2.340456231  -0.238243324
  H   -0.307753190   1.945593304  -0.052280451
  C    0.710077457   1.676446580   0.213123293
  O    1.016870675   0.352961926  -0.343793522
  C    0.173093164  -0.565775753  -0.068872892
  N   -0.585267239  -1.408086914   0.158814348
