17
charge=0 charge_a=0 charge_b=0 selection_a=1-3 selection_b=4-17 scaling=1.5 benchmark_Eint=-4.193 benchmark_unit=kcal/mol group=OH-N
  O    2.874349788   0.167364362  -0.086939366
  H    1.942388950  -0.128418705  -0.015895281
  H    3.272831708  -0.041384546   0.759968976
  H   -3.482548079  -0.653379280   0.826245746
  H   -3.702535408   0.885632468  -0.015079246
  H   -3.414773201  -0.601885150  -0.923702608
  H   -1.560348849   2.133788470  -0.822241276
  H   -1.856042326  -2.386775858   0.905849716
  H   -1.814249693  -2.363513120  -0.857954546
  H   -0.361590671  -2.783881750   0.051998630
  H   -1.616646177   2.126915092   0.928154284
  H   -0.112170066   1.666863192   0.095441628
  C   -1.660644331   0.182845176   0.041598080
  N   -0.799043453  -0.750758306   0.070956322
  C   -1.234847785  -2.137121998   0.041163776
  C   -1.195915341   1.608727086   0.063445518
  C   -3.150505932  -0.050162350  -0.019994118
