10
charge=0 charge_a=0 charge_b=0 selection_a=1-3 selection_b=4-10 scaling=1.25 benchmark_Eint=-5.715 benchmark_unit=kcal/mol group=OH-N
  O   -1.952573200   0.183687112   0.000000000
  H   -1.074646913  -0.247298404   0.000000000
  H   -2.591802599  -0.530867844   0.000000000
  N    1.246351863  -0.824650093   0.000000000
  H    1.523689197  -1.359011465   0.812943926
  H    1.523689197  -1.359011465  -0.812943926
  C    1.888062324   0.496564289   0.000000000
  H    1.558358809   1.050479506  -0.876570680
  H    2.981290527   0.464135763   0.000000000
  H    1.558358809   1.050479506   0.876570680
