16
charge=0 charge_a=0 charge_b=0 selection_a=1-3 selection_b=4-16 scaling=0.85 benchmark_Eint=-5.644 benchmark_unit=kcal/mol group=OH-N
  O   -2.456856240  -0.000000000   0.067839251
  H   -1.479185564  -0.000000000   0.148310503
  H   -2.792392285  -0.000000000   0.966017957
  H    1.379774236   0.000000000  -1.675148632
  H   -0.154168457   0.881611693  -1.837670410
  H   -0.154168457  -0.881611693  -1.837670410
  H    0.184261967  -2.082230858   0.214927797
  H    1.744427294  -1.289308321   0.513851671
  H    0.447917892  -1.200087780   1.721373402
  H    1.744427294   1.289308321   0.513851671
  H    0.447917892   1.200087780   1.721373402
  C    0.313730716   0.000000000  -1.403834204
  N    0.113784786  -0.000000000   0.040035941
  C    0.656260748  -1.204433680   0.652538566
  C    0.656260748   1.204433680   0.652538566
  H    0.184261967   2.082230858   0.214927797
