14
charge=0 charge_a=0 charge_b=0 selection_a=1-3 selection_b=4-14 scaling=0.85 benchmark_Eint=-4.659 benchmark_unit=kcal/mol group=OH-N
  O   -3.475931869  -0.000000063  -0.087855349
  H   -2.501930068  -0.000000050  -0.021587774
  H   -3.789910179   0.000001147   0.818290805
  H    1.700322332   2.146980216  -0.036191208
  H   -0.782835063   2.052302034   0.027762078
  C    1.898700964   0.000000001  -0.039339885
  C    1.192117273   1.194262637  -0.021025095
  C   -0.194650377   1.143668232   0.015795437
  N   -0.879184894  -0.000000016   0.035243752
  C   -0.194650399  -1.143668259   0.015795470
  C    1.192117269  -1.194262637  -0.021025070
  H   -0.782835050  -2.052302053   0.027762135
  H    1.700322354  -2.146980208  -0.036191167
  H    2.979063047  -0.000000012  -0.068686742
