16
charge=0 charge_a=0 charge_b=0 selection_a=1-3 selection_b=4-16 scaling=0.95 benchmark_Eint=-7.804 benchmark_unit=kcal/mol group=OH-N
  O   -2.456856240  -0.000000000   0.067839251
  H   -1.479185564  -0.000000000   0.148310503
  H   -2.792392285  -0.000000000   0.966017957
  H    1.567182513   0.000000000  -1.687886816
  H    0.033239820   0.881611693  -1.850408594
  H    0.033239820  -0.881611693  -1.850408594
  H    0.371670244  -2.082230858   0.202189613
  H    1.931835571  -1.289308321   0.501113487
  H    0.635326169  -1.200087780   1.708635218
  H    1.931835571   1.289308321   0.501113487
  H    0.635326169   1.200087780   1.708635218
  C    0.501138993   0.000000000  -1.416572388
  N    0.301193063  -0.000000000   0.027297757
  C    0.843669025  -1.204433680   0.639800382
  C    0.843669025   1.204433680   0.639800382
  H    0.371670244   2.082230858   0.202189613
