10
charge=0 charge_a=0 charge_b=0 selection_a=1-3 selection_b=4-10 scaling=1.05 benchmark_Eint=-6.559 benchmark_unit=kcal/mol group=OH-N
  O   -2.164066826   0.673628527  -0.058441427
  H   -1.914751889  -0.255799065   0.026437608
  H   -3.043517756   0.674244371  -0.441855628
  H    1.251081785   1.277895024   1.333088456
  H    1.852051770   1.980366278  -0.196875593
  H    0.107710764   1.585503351  -0.010912720
  C    1.125541411   1.316356627   0.254491024
  O    1.432334629  -0.007128027  -0.302425791
  C    0.588557118  -0.925865706  -0.027505161
  N   -0.169803285  -1.768176867   0.200182079
