16
charge=0 charge_a=0 charge_b=0 selection_a=1-3 selection_b=4-16 scaling=1.5 benchmark_Eint=-3.728 benchmark_unit=kcal/mol group=OH-N
  O   -2.456856240  -0.000000000   0.067839251
  H   -1.479185564  -0.000000000   0.148310503
  H   -2.792392285  -0.000000000   0.966017957
  H    2.597928034   0.000000000  -1.757946827
  H    1.063985340   0.881611693  -1.920468605
  H    1.063985340  -0.881611693  -1.920468605
  H    1.402415764  -2.082230858   0.132129602
  H    2.962581092  -1.289308321   0.431053476
  H    1.666071690  -1.200087780   1.638575207
  H    2.962581092   1.289308321   0.431053476
  H    1.666071690   1.200087780   1.638575207
  C    1.531884514   0.000000000  -1.486632399
  N    1.331938584   0.000000000  -0.042762254
  C    1.874414546  -1.204433680   0.569740371
  C    1.874414546   1.204433680   0.569740371
  H    1.402415764   2.082230858   0.132129602
