14
charge=0 charge_a=0 charge_b=0 selection_a=1-3 selection_b=4-14 scaling=2.0 benchmark_Eint=-1.372 benchmark_unit=kcal/mol group=OH-N
  O   -3.475931869  -0.000000063  -0.087855349
  H   -2.501930068  -0.000000050  -0.021587774
  H   -3.789910179   0.000001147   0.818290805
  H    3.895801096   2.146980262   0.040698504
  H    1.412643701   2.052302080   0.104651790
  C    4.094179728   0.000000047   0.037549827
  C    3.387596037   1.194262683   0.055864617
  C    2.000828387   1.143668278   0.092685149
  N    1.316293870   0.000000030   0.112133464
  C    2.000828365  -1.143668213   0.092685182
  C    3.387596033  -1.194262591   0.055864642
  H    1.412643714  -2.052302007   0.104651847
  H    3.895801118  -2.146980162   0.040698545
  H    5.174541811   0.000000034   0.008202970
