24
charge=0 charge_a=0 charge_b=0 selection_a=1-10 selection_b=11-24 scaling=0.9 benchmark_Eint=-6.427 benchmark_unit=kcal/mol group=NH-N
  H   -0.568163801   1.206840850   0.000001572
  H   -2.949384580   2.505912955   0.000002207
  H   -4.854487058   0.574832500  -0.000000907
  H   -3.524487732  -1.785868816  -0.000003134
  N   -1.792372843  -0.538614531  -0.000001024
  C   -1.567382356   0.812099593   0.000000755
  C   -2.789697306   1.442021038   0.000000960
  C   -3.788448457   0.430298206  -0.000000629
  C   -3.139772747  -0.782110297  -0.000001779
  H   -1.069841222  -1.244357727  -0.000000706
  H    1.353101917  -0.771749476  -2.140337286
  H    2.905506030   2.597952220  -0.000003259
  H    2.387148194   1.459239732  -2.138893521
  H    1.353099281  -0.771743146   2.140338861
  H    0.766295585  -2.715193353  -0.829757760
  H    2.387145739   1.459246053   2.138889649
  H    0.766300102  -2.715194465   0.829760890
  C    2.460661166   1.614044319  -0.000002063
  C    2.170026733   0.973160614  -1.198416437
  C    1.593204800  -0.288071653  -1.202872183
  C    1.298808023  -0.930156050   0.000000970
  C    1.593203536  -0.288068240   1.202872675
  C    2.170025493   0.973163982   1.198413841
  N    0.619351528  -2.161804182   0.000002349
