17
charge=0 charge_a=0 charge_b=0 selection_a=1-10 selection_b=11-17 scaling=0.95 benchmark_Eint=-8.387 benchmark_unit=kcal/mol group=NH-N
  H    0.918667277  -0.815752716   2.049965546
  H    2.727006044   1.143293462   1.544323221
  H    3.027942572   1.203808967  -1.150614053
  H    1.386849133  -0.721003132  -2.128915128
  N    0.926418286  -1.037143281  -0.070971276
  C    1.312306171  -0.467950918   1.112521495
  C    2.222361095   0.523480008   0.824456792
  C    2.380487248   0.554762616  -0.588016005
  C    1.561944217  -0.418759021  -1.112615730
  H    0.189116378  -1.716302609  -0.162586749
  H   -1.016963598   1.521918720  -1.356695099
  H   -0.179681338   1.401861818   0.220371554
  H   -1.393054991   2.690201043  -0.056908312
  C   -1.101359270   1.672807459  -0.285023098
  O   -2.203055867   0.848295697   0.229223188
  C   -2.092651376  -0.410101760   0.039048862
  N   -2.017019272  -1.552702294  -0.117381664
