24
charge=0 charge_a=0 charge_b=0 selection_a=1-10 selection_b=11-24 scaling=1.05 benchmark_Eint=-7.026 benchmark_unit=kcal/mol group=NH-N
  H   -0.568163801   1.206840850   0.000001572
  H   -2.949384580   2.505912955   0.000002207
  H   -4.854487058   0.574832500  -0.000000907
  H   -3.524487732  -1.785868816  -0.000003134
  N   -1.792372843  -0.538614531  -0.000001024
  C   -1.567382356   0.812099593   0.000000755
  C   -2.789697306   1.442021038   0.000000960
  C   -3.788448457   0.430298206  -0.000000629
  C   -3.139772747  -0.782110297  -0.000001779
  H   -1.069841222  -1.244357727  -0.000000706
  H    1.634634042  -0.924657218  -2.140336777
  H    3.187038155   2.445044478  -0.000002750
  H    2.668680319   1.306331990  -2.138893012
  H    1.634631406  -0.924650888   2.140339370
  H    1.047827710  -2.868101096  -0.829757251
  H    2.668677864   1.306338310   2.138890158
  H    1.047832227  -2.868102208   0.829761399
  C    2.742193291   1.461136576  -0.000001554
  C    2.451558858   0.820252872  -1.198415928
  C    1.874736925  -0.440979396  -1.202871674
  C    1.580340148  -1.083063792   0.000001479
  C    1.874735661  -0.440975982   1.202873184
  C    2.451557618   0.820256240   1.198414350
  N    0.900883653  -2.314711924   0.000002858
