14
charge=0 charge_a=0 charge_b=0 selection_a=1-10 selection_b=11-14 scaling=1.25 benchmark_Eint=-5.261 benchmark_unit=kcal/mol group=NH-N
  H    0.096926640  -2.102142538   0.000369967
  H    2.701604702  -1.356271212  -0.001019059
  H    2.701604693   1.356271228  -0.001019059
  H    0.096926636   2.102142541   0.000369962
  N   -0.263264501  -0.000000003   0.000889872
  C    0.526675166  -1.116677166   0.000346346
  C    1.841332580  -0.710269941  -0.000492644
  C    1.841332583   0.710269944  -0.000492644
  C    0.526675162   1.116677164   0.000346347
  H   -1.279730288  -0.000000004   0.001289280
  N   -3.821067167   0.000000001  -0.000960886
  H   -4.195020263   0.814714098   0.469913742
  H   -4.192434151   0.000000004  -0.942949101
  H   -4.195020281  -0.814714086   0.469913746
