17
charge=0 charge_a=0 charge_b=0 selection_a=1-10 selection_b=11-17 scaling=1.0 benchmark_Eint=-8.513 benchmark_unit=kcal/mol group=NH-N
  H    0.918667277  -0.815752716   2.049965546
  H    2.727006044   1.143293462   1.544323221
  H    3.027942572   1.203808967  -1.150614053
  H    1.386849133  -0.721003132  -2.128915128
  N    0.926418286  -1.037143281  -0.070971276
  C    1.312306171  -0.467950918   1.112521495
  C    2.222361095   0.523480008   0.824456792
  C    2.380487248   0.554762616  -0.588016005
  C    1.561944217  -0.418759021  -1.112615730
  H    0.189116378  -1.716302609  -0.162586749
  H   -1.133076001   1.530529263  -1.354315884
  H   -0.295793741   1.410472361   0.222750769
  H   -1.509167394   2.698811586  -0.054529097
  C   -1.217471673   1.681418002  -0.282643883
  O   -2.319168270   0.856906240   0.231602403
  C   -2.208763779  -0.401491217   0.041428077
  N   -2.133131675  -1.544091751  -0.115002449
