16
charge=0 charge_a=0 charge_b=0 selection_a=1-10 selection_b=11-16 scaling=0.9 benchmark_Eint=-5.126 benchmark_unit=kcal/mol group=NH-N
  H    1.332517238   2.101071673   0.000000000
  H    3.939832559   1.359336722   0.000000000
  H    3.943840380  -1.353390368   0.000000000
  H    1.338732396  -2.102829295   0.000000000
  N    0.978989408  -0.001410700   0.000000000
  C    1.765807023   1.117443671   0.000000000
  C    3.080449473   0.712181786   0.000000000
  C    3.082549161  -0.708779219   0.000000000
  C    1.769111148  -1.117922021   0.000000000
  H   -0.030244448  -0.002863434   0.000000000
  H   -4.877410971   0.513843899  -0.885676302
  H   -4.880162186  -1.019970735   0.000000000
  H   -4.877410971   0.513843899   0.885676302
  C   -4.505692802   0.001980044   0.000000000
  C   -3.053234588  -0.000736560   0.000000000
  N   -1.906403058  -0.002825976   0.000000000
