17
charge=0 charge_a=0 charge_b=0 selection_a=1-10 selection_b=11-17 scaling=1.5 benchmark_Eint=-3.814 benchmark_unit=kcal/mol group=NH-N
  H    0.918667277  -0.815752716   2.049965546
  H    2.727006044   1.143293462   1.544323221
  H    3.027942572   1.203808967  -1.150614053
  H    1.386849133  -0.721003132  -2.128915128
  N    0.926418286  -1.037143281  -0.070971276
  C    1.312306171  -0.467950918   1.112521495
  C    2.222361095   0.523480008   0.824456792
  C    2.380487248   0.554762616  -0.588016005
  C    1.561944217  -0.418759021  -1.112615730
  H    0.189116378  -1.716302609  -0.162586749
  H   -2.294200028   1.616634692  -1.330523734
  H   -1.456917768   1.496577790   0.246542919
  H   -2.670291420   2.784917015  -0.030736947
  C   -2.378595700   1.767523431  -0.258851733
  O   -3.480292296   0.943011669   0.255394553
  C   -3.369887806  -0.315385788   0.065220227
  N   -3.294255702  -1.457986322  -0.091210299
