24
charge=0 charge_a=0 charge_b=0 selection_a=1-10 selection_b=11-24 scaling=1.1 benchmark_Eint=-6.680 benchmark_unit=kcal/mol group=NH-N
  H   -0.568163801   1.206840850   0.000001572
  H   -2.949384580   2.505912955   0.000002207
  H   -4.854487058   0.574832500  -0.000000907
  H   -3.524487732  -1.785868816  -0.000003134
  N   -1.792372843  -0.538614531  -0.000001024
  C   -1.567382356   0.812099593   0.000000755
  C   -2.789697306   1.442021038   0.000000960
  C   -3.788448457   0.430298206  -0.000000629
  C   -3.139772747  -0.782110297  -0.000001779
  H   -1.069841222  -1.244357727  -0.000000706
  H    1.728478083  -0.975626466  -2.140336608
  H    3.280882196   2.394075230  -0.000002581
  H    2.762524360   1.255362742  -2.138892843
  H    1.728475447  -0.975620136   2.140339539
  H    1.141671751  -2.919070343  -0.829757082
  H    2.762521905   1.255369063   2.138890327
  H    1.141676268  -2.919071455   0.829761568
  C    2.836037332   1.410167329  -0.000001385
  C    2.545402899   0.769283624  -1.198415759
  C    1.968580966  -0.491948643  -1.202871505
  C    1.674184189  -1.134033040   0.000001648
  C    1.968579702  -0.491945230   1.202873353
  C    2.545401659   0.769286992   1.198414519
  N    0.994727694  -2.365681172   0.000003027
