24
charge=0 charge_a=0 charge_b=0 selection_a=1-10 selection_b=11-24 scaling=1.05 benchmark_Eint=-9.133 benchmark_unit=kcal/mol group=NH-N
  H    1.727530727  -0.152895102  -2.100897903
  H    4.295428527   0.298671055  -1.356317804
  H    4.295428527   0.298671055   1.356317804
  H    1.727530727  -0.152895102   2.100897903
  N    1.374696993  -0.216678611  -0.000000000
  C    2.152318398  -0.077783802  -1.116049783
  C    3.447865867   0.150611141  -0.710311261
  C    3.447865867   0.150611141   0.710311261
  C    2.152318398  -0.077783802   1.116049783
  H    0.364697223  -0.373282681  -0.000000000
  H   -4.277352957  -0.208341316  -0.875913918
  H   -4.390995776   1.322304390   0.000000000
  H   -4.277352957  -0.208341316   0.875913918
  H   -2.172278014   2.369363836   0.875531305
  H   -2.828060808  -2.095759270  -0.882186532
  H   -2.828060808  -2.095759270   0.882186532
  H   -1.398152469  -2.638068718   0.000000000
  H   -2.172278014   2.369363836  -0.875531305
  H   -0.744494529   1.778820499   0.000000000
  C   -2.421189111   0.435363518   0.000000000
  N   -1.646907099  -0.572388825   0.000000000
  C   -2.208418959  -1.913649037   0.000000000
  C   -1.829509043   1.813846971   0.000000000
  C   -3.927050390   0.339887619   0.000000000
