20
charge=0 charge_a=0 charge_b=0 selection_a=1-10 selection_b=11-20 scaling=2.0 benchmark_Eint=-1.551 benchmark_unit=kcal/mol group=NH-N
  H    0.978274764   2.101781861  -0.204061062
  H    3.519600476   1.356075081   0.370580363
  H    3.519600476  -1.356075081   0.370580363
  H    0.978274764  -2.101781861  -0.204061062
  N    0.627113075  -0.000000000  -0.284360306
  C    1.397549985   1.116435183  -0.108070033
  C    2.680108539   0.710261470   0.181864603
  C    2.680108539  -0.710261470   0.181864603
  C    1.397549985  -1.116435183  -0.108070033
  H   -0.373053477  -0.000000000  -0.489080736
  H   -3.958070365   1.280730330   1.211684881
  H   -5.643246329   1.255940491   0.673825765
  H   -4.405641176   2.087582262  -0.289561557
  H   -4.764792436   0.000000000  -1.294229804
  H   -4.405641176  -2.087582262  -0.289561557
  H   -3.958070365  -1.280730330   1.211684881
  H   -5.643246329  -1.255940491   0.673825765
  C   -4.600832216   1.216666639   0.333434533
  N   -4.281215015   0.000000000  -0.406565160
  C   -4.600832216  -1.216666639   0.333434533
