21
charge=0 charge_a=0 charge_b=0 selection_a=1-10 selection_b=11-21 scaling=0.8 benchmark_Eint=-3.033 benchmark_unit=kcal/mol group=NH-N
  H    2.190848566   0.102262970   2.101476974
  H    4.781049352  -0.189847670   1.356298304
  H    4.781038772  -0.189880972  -1.356308378
  H    2.190832059   0.102211515  -2.101473900
  N    1.834764032   0.142562322   0.000002429
  C    2.619386493   0.053151409   1.116704968
  C    3.925979593  -0.094207494   0.710379719
  C    3.925974077  -0.094224943  -0.710385387
  C    2.619377762   0.053124018  -1.116704024
  H    0.821953406   0.246554475   0.000004589
  H   -2.976540022  -2.306581544   0.000019644
  H   -0.535026465  -1.840226573   0.000017534
  C   -3.494846808  -0.213629579   0.000002000
  C   -2.616997654  -1.288360201   0.000011424
  C   -1.253196890  -1.029872305   0.000010306
  N   -0.747090919   0.203843985   0.000000726
  C   -1.596309058   1.231661236  -0.000008530
  C   -2.975303282   1.073303041  -0.000008241
  H   -1.153020947   2.219252204  -0.000016308
  H   -3.621054236   1.938814040  -0.000015668
  H   -4.563345188  -0.375690106   0.000002547
