24
charge=0 charge_a=0 charge_b=0 selection_a=1-10 selection_b=11-24 scaling=0.8 benchmark_Eint=-4.018 benchmark_unit=kcal/mol group=NH-N
  H    1.727530727  -0.152895102  -2.100897903
  H    4.295428527   0.298671055  -1.356317804
  H    4.295428527   0.298671055   1.356317804
  H    1.727530727  -0.152895102   2.100897903
  N    1.374696993  -0.216678611  -0.000000000
  C    2.152318398  -0.077783802  -1.116049783
  C    3.447865867   0.150611141  -0.710311261
  C    3.447865867   0.150611141   0.710311261
  C    2.152318398  -0.077783802   1.116049783
  H    0.364697223  -0.373282681  -0.000000000
  H   -3.798399547  -0.160935091  -0.875913918
  H   -3.912042366   1.369710615   0.000000000
  H   -3.798399547  -0.160935091   0.875913918
  H   -1.693324604   2.416770061   0.875531305
  H   -2.349107398  -2.048353045  -0.882186532
  H   -2.349107398  -2.048353045   0.882186532
  H   -0.919199059  -2.590662493  -0.000000000
  H   -1.693324604   2.416770061  -0.875531305
  H   -0.265541119   1.826226724   0.000000000
  C   -1.942235701   0.482769743   0.000000000
  N   -1.167953689  -0.524982600  -0.000000000
  C   -1.729465549  -1.866242812  -0.000000000
  C   -1.350555633   1.861253196   0.000000000
  C   -3.448096980   0.387293844   0.000000000
