21
charge=0 charge_a=0 charge_b=0 selection_a=1-10 selection_b=11-21 scaling=1.05 benchmark_Eint=-7.829 benchmark_unit=kcal/mol group=NH-N
  H    2.190848566   0.102262970   2.101476974
  H    4.781049352  -0.189847670   1.356298304
  H    4.781038772  -0.189880972  -1.356308378
  H    2.190832059   0.102211515  -2.101473900
  N    1.834764032   0.142562322   0.000002429
  C    2.619386493   0.053151409   1.116704968
  C    3.925979593  -0.094207494   0.710379719
  C    3.925974077  -0.094224943  -0.710385387
  C    2.619377762   0.053124018  -1.116704024
  H    0.821953406   0.246554475   0.000004589
  H   -3.466866373  -2.319928572   0.000018437
  H   -1.025352816  -1.853573601   0.000016327
  C   -3.985173159  -0.226976607   0.000000793
  C   -3.107324005  -1.301707229   0.000010217
  C   -1.743523241  -1.043219333   0.000009099
  N   -1.237417270   0.190496957  -0.000000481
  C   -2.086635409   1.218314208  -0.000009737
  C   -3.465629633   1.059956013  -0.000009448
  H   -1.643347298   2.205905176  -0.000017515
  H   -4.111380587   1.925467012  -0.000016875
  H   -5.053671539  -0.389037134   0.000001340
