20
charge=0 charge_a=0 charge_b=0 selection_a=1-10 selection_b=11-20 scaling=2.0 benchmark_Eint=-1.080 benchmark_unit=kcal/mol group=NH-N
  H   -1.370203934   0.128794405   2.102783594
  H   -3.957441590  -0.177439474   1.355896187
  H   -3.957441590  -0.177439474  -1.355896187
  H   -1.370203934   0.128794405  -2.102783594
  N   -1.014274211   0.172121696   0.000000000
  C   -1.798087744   0.078044167   1.117898359
  C   -3.102740897  -0.076766340   0.710444293
  C   -3.102740897  -0.076766340  -0.710444293
  C   -1.798087744   0.078044167  -1.117898359
  H   -0.005866292   0.279317938   0.000000000
  H    4.327260472   2.412658796   0.877904238
  H    5.781847181   1.837933387   0.000000000
  H    4.327260472   2.412658796  -0.877904238
  H    4.697010913  -2.230518418  -0.876967692
  H    3.234028692  -1.681529155   0.000000000
  H    4.697010913  -2.230518418   0.876967692
  C    4.693484942   1.880385107   0.000000000
  N    4.098117044   0.547477486   0.000000000
  N    4.917670540  -0.369351608   0.000000000
  C    4.323557496  -1.701971116   0.000000000
