24
charge=0 charge_a=0 charge_b=0 selection_a=1-10 selection_b=11-24 scaling=1.0 benchmark_Eint=-9.228 benchmark_unit=kcal/mol group=NH-N
  H    1.727530727  -0.152895102  -2.100897903
  H    4.295428527   0.298671055  -1.356317804
  H    4.295428527   0.298671055   1.356317804
  H    1.727530727  -0.152895102   2.100897903
  N    1.374696993  -0.216678611  -0.000000000
  C    2.152318398  -0.077783802  -1.116049783
  C    3.447865867   0.150611141  -0.710311261
  C    3.447865867   0.150611141   0.710311261
  C    2.152318398  -0.077783802   1.116049783
  H    0.364697223  -0.373282681  -0.000000000
  H   -4.181562275  -0.198860071  -0.875913918
  H   -4.295205094   1.331785635   0.000000000
  H   -4.181562275  -0.198860071   0.875913918
  H   -2.076487332   2.378845081   0.875531305
  H   -2.732270126  -2.086278025  -0.882186532
  H   -2.732270126  -2.086278025   0.882186532
  H   -1.302361787  -2.628587473   0.000000000
  H   -2.076487332   2.378845081  -0.875531305
  H   -0.648703847   1.788301744   0.000000000
  C   -2.325398429   0.444844763   0.000000000
  N   -1.551116417  -0.562907580   0.000000000
  C   -2.112628277  -1.904167792   0.000000000
  C   -1.733718361   1.823328216   0.000000000
  C   -3.831259708   0.349368864   0.000000000
