21
charge=0 charge_a=0 charge_b=0 selection_a=1-10 selection_b=11-21 scaling=0.95 benchmark_Eint=-7.692 benchmark_unit=kcal/mol group=NH-N
  H    2.190848566   0.102262970   2.101476974
  H    4.781049352  -0.189847670   1.356298304
  H    4.781038772  -0.189880972  -1.356308378
  H    2.190832059   0.102211515  -2.101473900
  N    1.834764032   0.142562322   0.000002429
  C    2.619386493   0.053151409   1.116704968
  C    3.925979593  -0.094207494   0.710379719
  C    3.925974077  -0.094224943  -0.710385387
  C    2.619377762   0.053124018  -1.116704024
  H    0.821953406   0.246554475   0.000004589
  H   -3.270735833  -2.314589760   0.000018919
  H   -0.829222276  -1.848234789   0.000016809
  C   -3.789042619  -0.221637795   0.000001275
  C   -2.911193465  -1.296368417   0.000010699
  C   -1.547392701  -1.037880521   0.000009581
  N   -1.041286730   0.195835769   0.000000001
  C   -1.890504869   1.223653020  -0.000009255
  C   -3.269499093   1.065294825  -0.000008966
  H   -1.447216758   2.211243988  -0.000017033
  H   -3.915250047   1.930805824  -0.000016393
  H   -4.857540999  -0.383698322   0.000001822
