16
charge=0 charge_a=0 charge_b=0 selection_a=1-10 selection_b=11-16 scaling=1.25 benchmark_Eint=-4.492 benchmark_unit=kcal/mol group=NH-N
  H    1.332517238   2.101071673   0.000000000
  H    3.939832559   1.359336722   0.000000000
  H    3.943840380  -1.353390368   0.000000000
  H    1.338732396  -2.102829295   0.000000000
  N    0.978989408  -0.001410700   0.000000000
  C    1.765807023   1.117443671   0.000000000
  C    3.080449473   0.712181786   0.000000000
  C    3.082549161  -0.708779219   0.000000000
  C    1.769111148  -1.117922021   0.000000000
  H   -0.030244448  -0.002863434   0.000000000
  H   -5.607028208   0.513858466  -0.885676302
  H   -5.609779424  -1.019956168   0.000000000
  H   -5.607028208   0.513858466   0.885676302
  C   -5.235310040   0.001994611   0.000000000
  C   -3.782851826  -0.000721993   0.000000000
  N   -2.636020296  -0.002811409   0.000000000
