24
charge=0 charge_a=0 charge_b=0 selection_a=1-10 selection_b=11-24 scaling=0.85 benchmark_Eint=-5.063 benchmark_unit=kcal/mol group=NH-N
  H   -0.568163801   1.206840850   0.000001572
  H   -2.949384580   2.505912955   0.000002207
  H   -4.854487058   0.574832500  -0.000000907
  H   -3.524487732  -1.785868816  -0.000003134
  N   -1.792372843  -0.538614531  -0.000001024
  C   -1.567382356   0.812099593   0.000000755
  C   -2.789697306   1.442021038   0.000000960
  C   -3.788448457   0.430298206  -0.000000629
  C   -3.139772747  -0.782110297  -0.000001779
  H   -1.069841222  -1.244357727  -0.000000706
  H    1.259257875  -0.720780228  -2.140337456
  H    2.811661988   2.648921468  -0.000003429
  H    2.293304152   1.510208980  -2.138893691
  H    1.259255239  -0.720773898   2.140338691
  H    0.672451543  -2.664224106  -0.829757930
  H    2.293301697   1.510215300   2.138889479
  H    0.672456060  -2.664225218   0.829760720
  C    2.366817124   1.665013566  -0.000002233
  C    2.076182691   1.024129862  -1.198416607
  C    1.499360758  -0.237102406  -1.202872353
  C    1.204963981  -0.879186802   0.000000800
  C    1.499359494  -0.237098992   1.202872505
  C    2.076181451   1.024133230   1.198413671
  N    0.525507486  -2.110834934   0.000002179
