17
charge=0 charge_a=0 charge_b=0 selection_a=1-10 selection_b=11-17 scaling=1.0 benchmark_Eint=-7.767 benchmark_unit=kcal/mol group=NH-N
  H    0.088050712   1.849854673   0.000000000
  H    2.797289205   1.800725797   0.000000000
  H    3.495844978  -0.820203674   0.000000000
  H    1.171061684  -2.212001087   0.000000000
  N    0.281292804  -0.274315694   0.000000000
  C    0.757292888   1.008489395   0.000000000
  C    2.132391261   0.954933028   0.000000000
  C    2.498169984  -0.417641254   0.000000000
  C    1.332372104  -1.149069702   0.000000000
  H   -0.704908350  -0.531022099   0.000000000
  N   -2.686823654  -0.709667888   0.000000000
  H   -3.029865796  -1.205470879  -0.812432369
  H   -3.029865796  -1.205470879   0.812432369
  C   -3.159971402   0.680082376   0.000000000
  H   -2.767652967   1.189992825   0.878229590
  H   -4.248379384   0.786266140   0.000000000
  H   -2.767652967   1.189992825  -0.878229590
