20
charge=0 charge_a=0 charge_b=0 selection_a=1-10 selection_b=11-20 scaling=1.5 benchmark_Eint=-3.973 benchmark_unit=kcal/mol group=NH-N
  H    0.978274764   2.101781861  -0.204061062
  H    3.519600476   1.356075081   0.370580363
  H    3.519600476  -1.356075081   0.370580363
  H    0.978274764  -2.101781861  -0.204061062
  N    0.627113075  -0.000000000  -0.284360306
  C    1.397549985   1.116435183  -0.108070033
  C    2.680108539   0.710261470   0.181864603
  C    2.680108539  -0.710261470   0.181864603
  C    1.397549985  -1.116435183  -0.108070033
  H   -0.373053477  -0.000000000  -0.489080736
  H   -2.981029980   1.280730330   1.191055987
  H   -4.666205944   1.255940491   0.653196871
  H   -3.428600792   2.087582262  -0.310190451
  H   -3.787752052   0.000000000  -1.314858698
  H   -3.428600792  -2.087582262  -0.310190451
  H   -2.981029980  -1.280730330   1.191055987
  H   -4.666205944  -1.255940491   0.653196871
  C   -3.623791832   1.216666639   0.312805639
  N   -3.304174630   0.000000000  -0.427194054
  C   -3.623791832  -1.216666639   0.312805639
