20
charge=0 charge_a=0 charge_b=0 selection_a=1-10 selection_b=11-20 scaling=0.9 benchmark_Eint=-7.503 benchmark_unit=kcal/mol group=NH-N
  H    0.978274764   2.101781861  -0.204061062
  H    3.519600476   1.356075081   0.370580363
  H    3.519600476  -1.356075081   0.370580363
  H    0.978274764  -2.101781861  -0.204061062
  N    0.627113075  -0.000000000  -0.284360306
  C    1.397549985   1.116435183  -0.108070033
  C    2.680108539   0.710261470   0.181864603
  C    2.680108539  -0.710261470   0.181864603
  C    1.397549985  -1.116435183  -0.108070033
  H   -0.373053477  -0.000000000  -0.489080736
  H   -1.808581519   1.280730330   1.166301314
  H   -3.493757483   1.255940491   0.628442198
  H   -2.256152330   2.087582262  -0.334945124
  H   -2.615303590  -0.000000000  -1.339613371
  H   -2.256152330  -2.087582262  -0.334945124
  H   -1.808581519  -1.280730330   1.166301314
  H   -3.493757483  -1.255940491   0.628442198
  C   -2.451343370   1.216666639   0.288050966
  N   -2.131726169  -0.000000000  -0.451948727
  C   -2.451343370  -1.216666639   0.288050966
