14
charge=0 charge_a=0 charge_b=0 selection_a=1-10 selection_b=11-14 scaling=1.05 benchmark_Eint=-6.773 benchmark_unit=kcal/mol group=NH-N
  H    0.096926640  -2.102142538   0.000369967
  H    2.701604702  -1.356271212  -0.001019059
  H    2.701604693   1.356271228  -0.001019059
  H    0.096926636   2.102142541   0.000369962
  N   -0.263264501  -0.000000003   0.000889872
  C    0.526675166  -1.116677166   0.000346346
  C    1.841332580  -0.710269941  -0.000492644
  C    1.841332583   0.710269944  -0.000492644
  C    0.526675162   1.116677164   0.000346347
  H   -1.279730288  -0.000000004   0.001289280
  N   -3.414453266   0.000000000  -0.000600860
  H   -3.788406362   0.814714097   0.470273768
  H   -3.785820250   0.000000003  -0.942589075
  H   -3.788406380  -0.814714087   0.470273772
