24
charge=0 charge_a=0 charge_b=0 selection_a=1-10 selection_b=11-24 scaling=1.1 benchmark_Eint=-8.814 benchmark_unit=kcal/mol group=NH-N
  H    1.727530727  -0.152895102  -2.100897903
  H    4.295428527   0.298671055  -1.356317804
  H    4.295428527   0.298671055   1.356317804
  H    1.727530727  -0.152895102   2.100897903
  N    1.374696993  -0.216678611  -0.000000000
  C    2.152318398  -0.077783802  -1.116049783
  C    3.447865867   0.150611141  -0.710311261
  C    3.447865867   0.150611141   0.710311261
  C    2.152318398  -0.077783802   1.116049783
  H    0.364697223  -0.373282681  -0.000000000
  H   -4.373143639  -0.217822561  -0.875913918
  H   -4.486786458   1.312823145   0.000000000
  H   -4.373143639  -0.217822561   0.875913918
  H   -2.268068696   2.359882591   0.875531305
  H   -2.923851490  -2.105240515  -0.882186532
  H   -2.923851490  -2.105240515   0.882186532
  H   -1.493943151  -2.647549963   0.000000000
  H   -2.268068696   2.359882591  -0.875531305
  H   -0.840285211   1.769339254   0.000000000
  C   -2.516979793   0.425882273   0.000000000
  N   -1.742697781  -0.581870070   0.000000000
  C   -2.304209641  -1.923130282   0.000000000
  C   -1.925299725   1.804365726   0.000000000
  C   -4.022841072   0.330406374   0.000000000
