24
charge=0 charge_a=0 charge_b=0 selection_a=1-10 selection_b=11-24 scaling=0.95 benchmark_Eint=-8.977 benchmark_unit=kcal/mol group=NH-N
  H    1.727530727  -0.152895102  -2.100897903
  H    4.295428527   0.298671055  -1.356317804
  H    4.295428527   0.298671055   1.356317804
  H    1.727530727  -0.152895102   2.100897903
  N    1.374696993  -0.216678611  -0.000000000
  C    2.152318398  -0.077783802  -1.116049783
  C    3.447865867   0.150611141  -0.710311261
  C    3.447865867   0.150611141   0.710311261
  C    2.152318398  -0.077783802   1.116049783
  H    0.364697223  -0.373282681  -0.000000000
  H   -4.085771593  -0.189378826  -0.875913918
  H   -4.199414412   1.341266880   0.000000000
  H   -4.085771593  -0.189378826   0.875913918
  H   -1.980696650   2.388326326   0.875531305
  H   -2.636479444  -2.076796780  -0.882186532
  H   -2.636479444  -2.076796780   0.882186532
  H   -1.206571105  -2.619106228  -0.000000000
  H   -1.980696650   2.388326326  -0.875531305
  H   -0.552913165   1.797782989   0.000000000
  C   -2.229607747   0.454326008   0.000000000
  N   -1.455325735  -0.553426335  -0.000000000
  C   -2.016837595  -1.894686547  -0.000000000
  C   -1.637927679   1.832809461   0.000000000
  C   -3.735469026   0.358850109   0.000000000
