20
charge=0 charge_a=0 charge_b=0 selection_a=1-10 selection_b=11-20 scaling=0.9 benchmark_Eint=-5.389 benchmark_unit=kcal/mol group=NH-N
  H   -1.370203934   0.128794405   2.102783594
  H   -3.957441590  -0.177439474   1.355896187
  H   -3.957441590  -0.177439474  -1.355896187
  H   -1.370203934   0.128794405  -2.102783594
  N   -1.014274211   0.172121696   0.000000000
  C   -1.798087744   0.078044167   1.117898359
  C   -3.102740897  -0.076766340   0.710444293
  C   -3.102740897  -0.076766340  -0.710444293
  C   -1.798087744   0.078044167  -1.117898359
  H   -0.005866292   0.279317938   0.000000000
  H    2.070069637   2.265171045   0.877904238
  H    3.524656346   1.690445636   0.000000000
  H    2.070069637   2.265171045  -0.877904238
  H    2.439820078  -2.378006169  -0.876967692
  H    0.976837857  -1.829016906   0.000000000
  H    2.439820078  -2.378006169   0.876967692
  C    2.436294107   1.732897356   0.000000000
  N    1.840926209   0.399989735   0.000000000
  N    2.660479705  -0.516839359   0.000000000
  C    2.066366661  -1.849458867   0.000000000
