17
charge=0 charge_a=0 charge_b=0 selection_a=1-10 selection_b=11-17 scaling=0.9 benchmark_Eint=-7.704 benchmark_unit=kcal/mol group=NH-N
  H    0.918667277  -0.815752716   2.049965546
  H    2.727006044   1.143293462   1.544323221
  H    3.027942572   1.203808967  -1.150614053
  H    1.386849133  -0.721003132  -2.128915128
  N    0.926418286  -1.037143281  -0.070971276
  C    1.312306171  -0.467950918   1.112521495
  C    2.222361095   0.523480008   0.824456792
  C    2.380487248   0.554762616  -0.588016005
  C    1.561944217  -0.418759021  -1.112615730
  H    0.189116378  -1.716302609  -0.162586749
  H   -0.900851196   1.513308177  -1.359074314
  H   -0.063568936   1.393251275   0.217992339
  H   -1.276942589   2.681590500  -0.059287527
  C   -0.985246868   1.664196916  -0.287402313
  O   -2.086943465   0.839685154   0.226843973
  C   -1.976538974  -0.418712303   0.036669647
  N   -1.900906870  -1.561312837  -0.119760879
