14
charge=0 charge_a=0 charge_b=0 selection_a=1-10 selection_b=11-14 scaling=0.9 benchmark_Eint=-6.075 benchmark_unit=kcal/mol group=NH-N
  H    0.096926640  -2.102142538   0.000369967
  H    2.701604702  -1.356271212  -0.001019059
  H    2.701604693   1.356271228  -0.001019059
  H    0.096926636   2.102142541   0.000369962
  N   -0.263264501  -0.000000003   0.000889872
  C    0.526675166  -1.116677166   0.000346346
  C    1.841332580  -0.710269941  -0.000492644
  C    1.841332583   0.710269944  -0.000492644
  C    0.526675162   1.116677164   0.000346347
  H   -1.279730288  -0.000000004   0.001289280
  N   -3.109492841  -0.000000000  -0.000330840
  H   -3.483445937   0.814714097   0.470543788
  H   -3.480859825   0.000000003  -0.942319055
  H   -3.483445955  -0.814714087   0.470543792
