8
charge=0 charge_a=0 charge_b=0 selection_a=1-4 selection_b=5-8 scaling=0.85 benchmark_Eint=-1.694 benchmark_unit=kcal/mol group=NH-N
  N   -1.654883145  -0.000000004  -0.060693613
  H   -0.669988029   0.000000078   0.192247937
  H   -2.080128157  -0.812840007   0.366967928
  H   -2.080128299   0.812839957   0.366967869
  N    1.249275989   0.000000007   0.049658201
  H    1.791529016  -0.815292094   0.305680067
  H    1.791528850   0.815292209   0.305680104
  H    1.160962685   0.000000018  -0.959028974
