17
charge=0 charge_a=0 charge_b=0 selection_a=1-4 selection_b=5-17 scaling=1.5 benchmark_Eint=-1.702 benchmark_unit=kcal/mol group=NH-N
  N   -2.672544687   0.000000000  -0.265348551
  H   -1.677475101   0.000000000  -0.483710111
  H   -3.084491707  -0.813088756  -0.705086623
  H   -3.084491707   0.813088756  -0.705086623
  H    3.614260234   0.000000000  -0.392550616
  H    2.538181516  -0.882837800  -1.492440078
  H    2.538181516   0.882837800  -1.492440078
  H    1.500875686   2.082511936   0.304324958
  H    2.480289516   1.279376535   1.546629068
  H    0.705766710   1.198932907   1.610290304
  H    2.480289516  -1.279376535   1.546629068
  H    0.705766710  -1.198932907   1.610290304
  C    2.615626302   0.000000000  -0.859197065
  N    1.543083802   0.000000000   0.119838421
  C    1.563666982   1.200257489   0.940218895
  C    1.563666982  -1.200257489   0.940218895
  H    1.500875686  -2.082511936   0.304324958
