11
charge=0 charge_a=0 charge_b=0 selection_a=1-4 selection_b=5-11 scaling=1.1 benchmark_Eint=-3.553 benchmark_unit=kcal/mol group=NH-N
  N   -2.122607070   0.107973100   0.048841426
  H   -1.238203179  -0.344137733  -0.173760739
  H   -2.817041333  -0.618313924   0.169396541
  H   -2.401379739   0.649474224  -0.759530311
  N    1.159265055  -0.764111265  -0.027460251
  H    1.789592209  -1.296120613  -0.612329962
  H    1.183336023  -1.185608515   0.891764306
  C    1.564298017   0.643285448   0.038858027
  H    0.840917519   1.190748785   0.640389461
  H    2.561978696   0.811865611   0.457552404
  H    1.543111156   1.068204651  -0.963831258
