8
charge=0 charge_a=0 charge_b=0 selection_a=1-4 selection_b=5-8 scaling=0.95 benchmark_Eint=-3.016 benchmark_unit=kcal/mol group=NH-N
  N   -1.654883145  -0.000000004  -0.060693613
  H   -0.669988029   0.000000078   0.192247937
  H   -2.080128157  -0.812840007   0.366967928
  H   -2.080128299   0.812839957   0.366967869
  N    1.475071756  -0.000000001   0.032882938
  H    2.017324783  -0.815292102   0.288904804
  H    2.017324617   0.815292201   0.288904841
  H    1.386758452   0.000000010  -0.975804237
