8
charge=0 charge_a=0 charge_b=0 selection_a=1-4 selection_b=5-8 scaling=1.1 benchmark_Eint=-2.955 benchmark_unit=kcal/mol group=NH-N
  N   -1.654883145  -0.000000004  -0.060693613
  H   -0.669988029   0.000000078   0.192247937
  H   -2.080128157  -0.812840007   0.366967928
  H   -2.080128299   0.812839957   0.366967869
  N    1.813765406  -0.000000013   0.007720043
  H    2.356018433  -0.815292114   0.263741909
  H    2.356018267   0.815292189   0.263741946
  H    1.725452102  -0.000000002  -1.000967132
