23
charge=0 charge_a=0 charge_b=0 selection_a=1-10 selection_b=11-23 scaling=1.05 benchmark_Eint=-8.343 benchmark_unit=kcal/mol group=NH-N
  H   -1.246387616  -2.065421765   0.008074464
  H   -3.873682724  -1.400460135  -0.010324210
  H   -3.957173119   1.310326492  -0.007410906
  H   -1.376370501   2.136162153   0.012809569
  N   -0.950948924   0.046568308   0.013390917
  C   -1.706660751  -1.093743761   0.006141350
  C   -3.033523581  -0.728483033  -0.003197980
  C   -3.077247919   0.691331887  -0.001648833
  C   -1.775414715   1.137778547   0.008608425
  H    0.071119423   0.074708467   0.019710512
  H    3.703523021   0.467169149   1.335499610
  H    2.304971114   1.557152051   1.397138306
  H    2.186720742  -0.061180251   2.090812561
  H    2.010997291  -1.975242337   0.651892705
  H    3.507321578  -1.579523885  -0.214722851
  H    1.981316406  -1.762157826  -1.101321745
  H    3.667529078   0.777722083  -1.227992281
  H    2.127412773   0.443541833  -2.044599577
  C    2.606525378   0.518672198   1.270570075
  N    2.102971122   0.011257570   0.001943206
  C    2.423014805  -1.398537989  -0.174826843
  C    2.573074073   0.809918210  -1.121315404
  H    2.273678023   1.847914490  -0.985556655
