8
charge=0 charge_a=0 charge_b=0 selection_a=1-4 selection_b=5-8 scaling=1.5 benchmark_Eint=-1.306 benchmark_unit=kcal/mol group=NH-N
  N   -1.654883145  -0.000000004  -0.060693613
  H   -0.669988029   0.000000078   0.192247937
  H   -2.080128157  -0.812840007   0.366967928
  H   -2.080128299   0.812839957   0.366967869
  N    2.716948473  -0.000000046  -0.059381010
  H    3.259201500  -0.815292148   0.196640856
  H    3.259201334   0.815292156   0.196640894
  H    2.628635169  -0.000000036  -1.068068184
