8
charge=0 charge_a=0 charge_b=0 selection_a=1-4 selection_b=5-8 scaling=1.05 benchmark_Eint=-3.107 benchmark_unit=kcal/mol group=NH-N
  N   -1.654883145  -0.000000004  -0.060693613
  H   -0.669988029   0.000000078   0.192247937
  H   -2.080128157  -0.812840007   0.366967928
  H   -2.080128299   0.812839957   0.366967869
  N    1.700867522  -0.000000009   0.016107674
  H    2.243120549  -0.815292110   0.272129540
  H    2.243120383   0.815292193   0.272129577
  H    1.612554218   0.000000002  -0.992579501
