17
charge=0 charge_a=0 charge_b=0 selection_a=1-4 selection_b=5-17 scaling=2.0 benchmark_Eint=-0.545 benchmark_unit=kcal/mol group=NH-N
  N   -2.672544687   0.000000000  -0.265348551
  H   -1.677475101   0.000000000  -0.483710111
  H   -3.084491707  -0.813088756  -0.705086623
  H   -3.084491707   0.813088756  -0.705086623
  H    4.687779869   0.000000000  -0.191367772
  H    3.611701150  -0.882837800  -1.291257234
  H    3.611701150   0.882837800  -1.291257234
  H    2.574395320   2.082511936   0.505507802
  H    3.553809150   1.279376535   1.747811912
  H    1.779286344   1.198932907   1.811473148
  H    3.553809150  -1.279376535   1.747811912
  H    1.779286344  -1.198932907   1.811473148
  C    3.689145937   0.000000000  -0.658014221
  N    2.616603437   0.000000000   0.321021265
  C    2.637186617   1.200257489   1.141401739
  C    2.637186617  -1.200257489   1.141401739
  H    2.574395320  -2.082511936   0.505507802
