14
charge=0 charge_a=0 charge_b=0 selection_a=1-4 selection_b=5-14 scaling=1.5 benchmark_Eint=-1.346 benchmark_unit=kcal/mol group=NH-N
  N    2.760290743  -0.431650215   0.000000000
  H    1.762874329  -0.624851451   0.000000000
  H    3.161841645  -0.878790271   0.814264093
  H    3.161841645  -0.878790271  -0.814264093
  H   -2.380645898  -2.034103884   0.878241575
  H   -3.633994907  -1.099727846   0.000000000
  H   -2.380645898  -2.034103884  -0.878241575
  H   -1.536570835   2.544632128  -0.876518679
  H   -0.261143407   1.637123042   0.000000000
  H   -1.536570835   2.544632128   0.876518679
  C   -2.593462614  -1.424215858   0.000000000
  N   -1.668587828  -0.294190766   0.000000000
  N   -2.226987029   0.801881332   0.000000000
  C   -1.308260073   1.937700824   0.000000000
