14
charge=0 charge_a=0 charge_b=0 selection_a=1-4 selection_b=5-14 scaling=1.05 benchmark_Eint=-3.782 benchmark_unit=kcal/mol group=NH-N
  N    2.584762668   0.224020853   0.023954426
  H    1.580966436   0.394728666  -0.006189534
  H    3.051410457   1.081116058  -0.244226564
  H    2.836507797   0.041360392   0.987104430
  H   -0.594752949  -1.345234938   1.157801718
  H   -1.675472540  -1.807782204  -0.162163257
  H    0.089351529  -1.858893628  -0.381067747
  H   -0.686128935   0.123361342  -1.371220458
  H   -1.711364630   1.900660194  -0.232098486
  H   -1.666153234   0.960961766   1.256793149
  H   -2.765669123   0.484834286  -0.042680858
  C   -0.727929380  -1.304568828   0.075914582
  N   -0.680842846   0.084274504  -0.361052700
  C   -1.767338841   0.891635042   0.173040183
