14
charge=0 charge_a=0 charge_b=0 selection_a=1-4 selection_b=5-14 scaling=1.1 benchmark_Eint=-3.595 benchmark_unit=kcal/mol group=NH-N
  N    2.584762668   0.224020853   0.023954426
  H    1.580966436   0.394728666  -0.006189534
  H    3.051410457   1.081116058  -0.244226564
  H    2.836507797   0.041360392   0.987104430
  H   -0.702458153  -1.360018469   1.140903472
  H   -1.783177744  -1.822565735  -0.179061503
  H   -0.018353675  -1.873677160  -0.397965993
  H   -0.793834139   0.108577811  -1.388118704
  H   -1.819069834   1.885876662  -0.248996732
  H   -1.773858438   0.946178235   1.239894903
  H   -2.873374327   0.470050754  -0.059579104
  C   -0.835634584  -1.319352360   0.059016336
  N   -0.788548050   0.069490973  -0.377950946
  C   -1.875044045   0.876851510   0.156141937
