17
charge=0 charge_a=0 charge_b=0 selection_a=1-4 selection_b=5-17 scaling=0.95 benchmark_Eint=-4.200 benchmark_unit=kcal/mol group=NH-N
  N   -2.672544687   0.000000000  -0.265348551
  H   -1.677475101   0.000000000  -0.483710111
  H   -3.084491707  -0.813088756  -0.705086623
  H   -3.084491707   0.813088756  -0.705086623
  H    2.433388637   0.000000000  -0.613851744
  H    1.357309918  -0.882837800  -1.713741206
  H    1.357309918   0.882837800  -1.713741206
  H    0.320004088   2.082511936   0.083023830
  H    1.299417918   1.279376535   1.325327940
  H   -0.475104888   1.198932907   1.388989176
  H    1.299417918  -1.279376535   1.325327940
  H   -0.475104888  -1.198932907   1.388989176
  C    1.434754705   0.000000000  -1.080498193
  N    0.362212205   0.000000000  -0.101462707
  C    0.382795385   1.200257489   0.718917767
  C    0.382795385  -1.200257489   0.718917767
  H    0.320004088  -2.082511936   0.083023830
