8
charge=0 charge_a=0 charge_b=0 selection_a=1-4 selection_b=5-8 scaling=0.9 benchmark_Eint=-2.585 benchmark_unit=kcal/mol group=NH-N
  N   -1.654883145  -0.000000004  -0.060693613
  H   -0.669988029   0.000000078   0.192247937
  H   -2.080128157  -0.812840007   0.366967928
  H   -2.080128299   0.812839957   0.366967869
  N    1.362173872   0.000000003   0.041270569
  H    1.904426899  -0.815292098   0.297292435
  H    1.904426733   0.815292205   0.297292472
  H    1.273860568   0.000000014  -0.967416606
