14
charge=0 charge_a=0 charge_b=0 selection_a=1-4 selection_b=5-14 scaling=1.0 benchmark_Eint=-3.846 benchmark_unit=kcal/mol group=NH-N
  N    2.584762668   0.224020853   0.023954426
  H    1.580966436   0.394728666  -0.006189534
  H    3.051410457   1.081116058  -0.244226564
  H    2.836507797   0.041360392   0.987104430
  H   -0.487047745  -1.330451406   1.174699964
  H   -1.567767336  -1.792998672  -0.145265011
  H    0.197056733  -1.844110097  -0.364169501
  H   -0.578423731   0.138144874  -1.354322212
  H   -1.603659426   1.915443725  -0.215200240
  H   -1.558448030   0.975745298   1.273691395
  H   -2.657963919   0.499617817  -0.025782612
  C   -0.620224176  -1.289785297   0.092812828
  N   -0.573137642   0.099058036  -0.344154454
  C   -1.659633637   0.906418573   0.189938429
