18
charge=0 charge_a=0 charge_b=0 selection_a=1-4 selection_b=5-18 scaling=0.95 benchmark_Eint=-4.407 benchmark_unit=kcal/mol group=NH-N
  N   -3.119450836  -0.076004291   0.000000000
  H   -2.167462481   0.288213154   0.000000000
  H   -3.592829958   0.295771649   0.813635113
  H   -3.592829958   0.295771649  -0.813635113
  H    2.490690586   0.146285090  -0.875923060
  H    2.553477344  -1.386992597   0.000000000
  H    2.490690586   0.146285090   0.875923060
  H    0.306351107  -2.362968972   0.875345550
  H    1.106870250   2.073650750  -0.881813544
  H    1.106870250   2.073650750   0.881813544
  H   -0.302010702   2.667931360   0.000000000
  H    0.306351107  -2.362968972  -0.875345550
  H   -1.105476666  -1.726482790   0.000000000
  C    0.611116701  -0.436687811   0.000000000
  N   -0.131632928   0.593944378   0.000000000
  C    0.479624784   1.912186406   0.000000000
  C   -0.021952693  -1.797419010   0.000000000
  C    2.121618546  -0.389810867   0.000000000
