15
charge=0 charge_a=0 charge_b=0 selection_a=1-4 selection_b=5-15 scaling=1.1 benchmark_Eint=-4.029 benchmark_unit=kcal/mol group=NH-N
  N   -3.595113002  -0.074407035   0.000000000
  H   -2.719733327   0.443379929   0.000000000
  H   -4.122384425   0.215651098   0.813579457
  H   -4.122384425   0.215651098  -0.813579457
  H    1.306584123  -2.431645861   0.000000000
  H   -0.963911015  -1.405196341   0.000000000
  C    2.299214090  -0.518316226   0.000000000
  C    1.194310780  -1.357360482   0.000000000
  C   -0.073540652  -0.789088824   0.000000000
  N   -0.280362756   0.529159081   0.000000000
  C    0.787009069   1.327318518   0.000000000
  C    2.092708530   0.854146047   0.000000000
  H    0.589510562   2.392258877   0.000000000
  H    2.921986439   1.546295960   0.000000000
  H    3.300811084  -0.924785628   0.000000000
