11
charge=0 charge_a=0 charge_b=0 selection_a=1-4 selection_b=5-11 scaling=2.0 benchmark_Eint=-0.520 benchmark_unit=kcal/mol group=NH-N
  N   -2.122607070   0.107973100   0.048841426
  H   -1.238203179  -0.344137733  -0.173760739
  H   -2.817041333  -0.618313924   0.169396541
  H   -2.401379739   0.649474224  -0.759530311
  N    3.120829973  -1.107725973   0.092240149
  H    3.751157127  -1.639735321  -0.492629562
  H    3.144900941  -1.529223223   1.011464706
  C    3.525862935   0.299670740   0.158558427
  H    2.802482437   0.847134077   0.760089861
  H    4.523543614   0.468250903   0.577252804
  H    3.504676074   0.724589943  -0.844130858
