28
charge=0 charge_a=0 charge_b=0 selection_a=1-14 selection_b=15-28 scaling=1.0 benchmark_Eint=-6.252 benchmark_unit=kcal/mol group=NH-N
  H    0.128477238  -0.302780000   0.770852135
  H    3.715800068  -2.468248489  -0.114838831
  H    1.329395441  -2.426354797   0.571013751
  H    3.663122095   1.805883669  -0.412332930
  H    0.132418427   2.104758712   0.238482895
  H    4.867471023  -0.326115764  -0.603053292
  H    1.558373807   2.901292698  -0.131507890
  C    3.186349527  -1.530680186  -0.029510186
  C    1.850139755  -1.503454248   0.355495145
  C    1.164510678  -0.304583599   0.467952397
  C    1.805267167   0.907910804   0.187844752
  C    3.150728184   0.876751793  -0.197175846
  C    3.828642316  -0.328491296  -0.302446590
  N    1.137361806   2.117839540   0.337779885
  H   -2.773931007   0.775435754   1.925718214
  H   -2.386647145  -3.027974419  -0.006918171
  H   -2.878608367  -1.679799267   2.013497186
  H   -1.697441102   0.577312902  -2.212903474
  H   -2.603545549   2.732680281   0.529327799
  H   -1.803001041  -1.875837082  -2.121554779
  H   -2.227988534   2.657112286  -1.088094603
  C   -2.351530187  -1.949578156  -0.048818156
  C   -2.626342664  -1.191597683   1.082798224
  C   -2.573805103   0.194055440   1.035407544
  C   -2.243190074   0.845324138  -0.153915755
  C   -1.973193559   0.082729641  -1.291097590
  C   -2.027148860  -1.301081572  -1.234352256
  N   -2.087904818   2.239287767  -0.181954945
