11
charge=0 charge_a=0 charge_b=0 selection_a=1-4 selection_b=5-11 scaling=1.5 benchmark_Eint=-1.540 benchmark_unit=kcal/mol group=NH-N
  N   -2.122607070   0.107973100   0.048841426
  H   -1.238203179  -0.344137733  -0.173760739
  H   -2.817041333  -0.618313924   0.169396541
  H   -2.401379739   0.649474224  -0.759530311
  N    2.031071685  -0.916828913   0.025739927
  H    2.661398839  -1.448838261  -0.559129784
  H    2.055142653  -1.338326163   0.944964484
  C    2.436104647   0.490567800   0.092058205
  H    1.712724149   1.038031137   0.693589639
  H    3.433785326   0.659147963   0.510752582
  H    2.414917786   0.915487003  -0.910631080
