23
charge=0 charge_a=0 charge_b=0 selection_a=1-10 selection_b=11-23 scaling=0.9 benchmark_Eint=-7.564 benchmark_unit=kcal/mol group=NH-N
  H   -1.246387616  -2.065421765   0.008074464
  H   -3.873682724  -1.400460135  -0.010324210
  H   -3.957173119   1.310326492  -0.007410906
  H   -1.376370501   2.136162153   0.012809569
  N   -0.950948924   0.046568308   0.013390917
  C   -1.706660751  -1.093743761   0.006141350
  C   -3.033523581  -0.728483033  -0.003197980
  C   -3.077247919   0.691331887  -0.001648833
  C   -1.775414715   1.137778547   0.008608425
  H    0.071119423   0.074708467   0.019710512
  H    3.413258492   0.476233563   1.338037796
  H    2.014706585   1.566216465   1.399676492
  H    1.896456213  -0.052115837   2.093350747
  H    1.720732762  -1.966177923   0.654430891
  H    3.217057049  -1.570459471  -0.212184665
  H    1.691051877  -1.753093412  -1.098783559
  H    3.377264549   0.786786497  -1.225454095
  H    1.837148244   0.452606247  -2.042061391
  C    2.316260849   0.527736612   1.273108261
  N    1.812706593   0.020321984   0.004481392
  C    2.132750276  -1.389473575  -0.172288657
  C    2.282809544   0.818982624  -1.118777218
  H    1.983413494   1.856978904  -0.983018469
