28
charge=0 charge_a=0 charge_b=0 selection_a=1-14 selection_b=15-28 scaling=0.8 benchmark_Eint=-1.321 benchmark_unit=kcal/mol group=NH-N
  H    0.128477238  -0.302780000   0.770852135
  H    3.715800068  -2.468248489  -0.114838831
  H    1.329395441  -2.426354797   0.571013751
  H    3.663122095   1.805883669  -0.412332930
  H    0.132418427   2.104758712   0.238482895
  H    4.867471023  -0.326115764  -0.603053292
  H    1.558373807   2.901292698  -0.131507890
  C    3.186349527  -1.530680186  -0.029510186
  C    1.850139755  -1.503454248   0.355495145
  C    1.164510678  -0.304583599   0.467952397
  C    1.805267167   0.907910804   0.187844752
  C    3.150728184   0.876751793  -0.197175846
  C    3.828642316  -0.328491296  -0.302446590
  N    1.137361806   2.117839540   0.337779885
  H   -2.329866358   0.748529943   2.009805782
  H   -1.942582496  -3.054880230   0.077169397
  H   -2.434543718  -1.706705078   2.097584754
  H   -1.253376453   0.550407091  -2.128815906
  H   -2.159480900   2.705774470   0.613415367
  H   -1.358936392  -1.902742893  -2.037467211
  H   -1.783923885   2.630206475  -1.004007035
  C   -1.907465538  -1.976483967   0.035269412
  C   -2.182278015  -1.218503494   1.166885792
  C   -2.129740454   0.167149629   1.119495112
  C   -1.799125425   0.818418327  -0.069828187
  C   -1.529128910   0.055823830  -1.207010022
  C   -1.583084211  -1.327987383  -1.150264688
  N   -1.643840169   2.212381956  -0.097867377
