14
charge=0 charge_a=0 charge_b=0 selection_a=1-4 selection_b=5-14 scaling=0.85 benchmark_Eint=-1.762 benchmark_unit=kcal/mol group=NH-N
  N    2.760290743  -0.431650215   0.000000000
  H    1.762874329  -0.624851451   0.000000000
  H    3.161841645  -0.878790271   0.814264093
  H    3.161841645  -0.878790271  -0.814264093
  H   -0.893678963  -2.177390181   0.878241575
  H   -2.147027972  -1.243014143   0.000000000
  H   -0.893678963  -2.177390181  -0.878241575
  H   -0.049603900   2.401345831  -0.876518679
  H    1.225823528   1.493836745   0.000000000
  H   -0.049603900   2.401345831   0.876518679
  C   -1.106495679  -1.567502155   0.000000000
  N   -0.181620893  -0.437477063   0.000000000
  N   -0.740020094   0.658595035   0.000000000
  C    0.178706862   1.794414527   0.000000000
