18
charge=0 charge_a=0 charge_b=0 selection_a=1-14 selection_b=15-18 scaling=0.95 benchmark_Eint=-5.098 benchmark_unit=kcal/mol group=NH-N
  H    0.987451285  -1.327279416   0.584810321
  H   -3.214438134  -1.370492699  -0.261336076
  H   -1.115490291  -2.566936932   0.298656136
  H   -1.059472142   2.333636233  -0.270460289
  H    2.160048676   0.769000190   0.201961072
  H   -3.161397504   1.093731449  -0.539436924
  H    1.324930867   2.220302956  -0.013306251
  C   -2.289248571  -0.826200443  -0.142863784
  C   -1.109716172  -1.493036997   0.169783684
  C    0.080249583  -0.799288027   0.325422071
  C    0.122436957   0.592937032   0.165919185
  C   -1.070005382   1.258222417  -0.147417842
  C   -2.255311410   0.555272037  -0.297272858
  N    1.303638517   1.288272499   0.363387374
  N    3.649097047  -0.510334839  -0.304276655
  H    4.477367506  -0.130878168  -0.745519618
  H    3.957762671  -1.082523798   0.471836252
  H    3.205731074  -1.126028775  -0.975113596
