17
charge=0 charge_a=0 charge_b=0 selection_a=1-4 selection_b=5-17 scaling=0.85 benchmark_Eint=-2.688 benchmark_unit=kcal/mol group=NH-N
  N   -2.672544687   0.000000000  -0.265348551
  H   -1.677475101   0.000000000  -0.483710111
  H   -3.084491707  -0.813088756  -0.705086623
  H   -3.084491707   0.813088756  -0.705086623
  H    2.218684710   0.000000000  -0.654088313
  H    1.142605991  -0.882837800  -1.753977775
  H    1.142605991   0.882837800  -1.753977775
  H    0.105300161   2.082511936   0.042787261
  H    1.084713991   1.279376535   1.285091371
  H   -0.689808815   1.198932907   1.348752607
  H    1.084713991  -1.279376535   1.285091371
  H   -0.689808815  -1.198932907   1.348752607
  C    1.220050778   0.000000000  -1.120734762
  N    0.147508278   0.000000000  -0.141699276
  C    0.168091458   1.200257489   0.678681198
  C    0.168091458  -1.200257489   0.678681198
  H    0.105300161  -2.082511936   0.042787261
