8
charge=0 charge_a=0 charge_b=0 selection_a=1-4 selection_b=5-8 scaling=1.25 benchmark_Eint=-2.278 benchmark_unit=kcal/mol group=NH-N
  N   -1.654883145  -0.000000004  -0.060693613
  H   -0.669988029   0.000000078   0.192247937
  H   -2.080128157  -0.812840007   0.366967928
  H   -2.080128299   0.812839957   0.366967869
  N    2.152459056  -0.000000026  -0.017442852
  H    2.694712083  -0.815292127   0.238579014
  H    2.694711917   0.815292176   0.238579051
  H    2.064145752  -0.000000015  -1.026130027
