15
charge=0 charge_a=0 charge_b=0 selection_a=1-4 selection_b=5-15 scaling=1.0 benchmark_Eint=-4.356 benchmark_unit=kcal/mol group=NH-N
  N   -3.595113002  -0.074407035   0.000000000
  H   -2.719733327   0.443379929   0.000000000
  H   -4.122384425   0.215651098   0.813579457
  H   -4.122384425   0.215651098  -0.813579457
  H    1.084823162  -2.439443966   0.000000000
  H   -1.185671976  -1.412994446   0.000000000
  C    2.077453129  -0.526114331   0.000000000
  C    0.972549819  -1.365158587   0.000000000
  C   -0.295301613  -0.796886929   0.000000000
  N   -0.502123717   0.521360976   0.000000000
  C    0.565248108   1.319520413   0.000000000
  C    1.870947569   0.846347942   0.000000000
  H    0.367749601   2.384460772   0.000000000
  H    2.700225478   1.538497855   0.000000000
  H    3.079050123  -0.932583733   0.000000000
