17
charge=0 charge_a=0 charge_b=0 selection_a=1-4 selection_b=5-17 scaling=0.9 benchmark_Eint=-3.720 benchmark_unit=kcal/mol group=NH-N
  N   -2.672544687   0.000000000  -0.265348551
  H   -1.677475101   0.000000000  -0.483710111
  H   -3.084491707  -0.813088756  -0.705086623
  H   -3.084491707   0.813088756  -0.705086623
  H    2.326036673   0.000000000  -0.633970029
  H    1.249957954  -0.882837800  -1.733859491
  H    1.249957954   0.882837800  -1.733859491
  H    0.212652124   2.082511936   0.062905545
  H    1.192065954   1.279376535   1.305209655
  H   -0.582456852   1.198932907   1.368870891
  H    1.192065954  -1.279376535   1.305209655
  H   -0.582456852  -1.198932907   1.368870891
  C    1.327402741   0.000000000  -1.100616478
  N    0.254860241   0.000000000  -0.121580992
  C    0.275443421   1.200257489   0.698799482
  C    0.275443421  -1.200257489   0.698799482
  H    0.212652124  -2.082511936   0.062905545
