15
charge=0 charge_a=0 charge_b=0 selection_a=1-4 selection_b=5-15 scaling=0.9 benchmark_Eint=-3.712 benchmark_unit=kcal/mol group=NH-N
  N   -3.595113002  -0.074407035   0.000000000
  H   -2.719733327   0.443379929   0.000000000
  H   -4.122384425   0.215651098   0.813579457
  H   -4.122384425   0.215651098  -0.813579457
  H    0.863062201  -2.447242071   0.000000000
  H   -1.407432937  -1.420792551   0.000000000
  C    1.855692168  -0.533912436   0.000000000
  C    0.750788858  -1.372956692   0.000000000
  C   -0.517062574  -0.804685034   0.000000000
  N   -0.723884678   0.513562871   0.000000000
  C    0.343487147   1.311722308   0.000000000
  C    1.649186608   0.838549837   0.000000000
  H    0.145988640   2.376662667   0.000000000
  H    2.478464517   1.530699750   0.000000000
  H    2.857289162  -0.940381838   0.000000000
