15
charge=0 charge_a=0 charge_b=0 selection_a=1-4 selection_b=5-15 scaling=1.5 benchmark_Eint=-1.739 benchmark_unit=kcal/mol group=NH-N
  N   -3.595113002  -0.074407035   0.000000000
  H   -2.719733327   0.443379929   0.000000000
  H   -4.122384425   0.215651098   0.813579457
  H   -4.122384425   0.215651098  -0.813579457
  H    2.193627967  -2.400453442   0.000000000
  H   -0.076867171  -1.374003922   0.000000000
  C    3.186257934  -0.487123808   0.000000000
  C    2.081354624  -1.326168064   0.000000000
  C    0.813503192  -0.757896406   0.000000000
  N    0.606681088   0.560351500   0.000000000
  C    1.674052913   1.358510936   0.000000000
  C    2.979752374   0.885338466   0.000000000
  H    1.476554406   2.423451296   0.000000000
  H    3.809030283   1.577488378   0.000000000
  H    4.187854928  -0.893593210   0.000000000
