18
charge=0 charge_a=0 charge_b=0 selection_a=1-14 selection_b=15-18 scaling=2.0 benchmark_Eint=-0.979 benchmark_unit=kcal/mol group=NH-N
  H    0.987451285  -1.327279416   0.584810321
  H   -3.214438134  -1.370492699  -0.261336076
  H   -1.115490291  -2.566936932   0.298656136
  H   -1.059472142   2.333636233  -0.270460289
  H    2.160048676   0.769000190   0.201961072
  H   -3.161397504   1.093731449  -0.539436924
  H    1.324930867   2.220302956  -0.013306251
  C   -2.289248571  -0.826200443  -0.142863784
  C   -1.109716172  -1.493036997   0.169783684
  C    0.080249583  -0.799288027   0.325422071
  C    0.122436957   0.592937032   0.165919185
  C   -1.070005382   1.258222417  -0.147417842
  C   -2.255311410   0.555272037  -0.297272858
  N    1.303638517   1.288272499   0.363387374
  N    5.294887352  -1.924336714  -0.863802564
  H    6.123157811  -1.544880043  -1.305045527
  H    5.603552976  -2.496525673  -0.087689657
  H    4.851521379  -2.540030650  -1.534639505
