18
charge=0 charge_a=0 charge_b=0 selection_a=1-4 selection_b=5-18 scaling=1.5 benchmark_Eint=-2.034 benchmark_unit=kcal/mol group=NH-N
  N   -3.119450836  -0.076004291   0.000000000
  H   -2.167462481   0.288213154   0.000000000
  H   -3.592829958   0.295771649   0.813635113
  H   -3.592829958   0.295771649  -0.813635113
  H    3.669328748   0.323287378  -0.875923060
  H    3.732115506  -1.209990310   0.000000000
  H    3.669328748   0.323287378   0.875923060
  H    1.484989270  -2.185966684   0.875345550
  H    2.285508412   2.250653038  -0.881813544
  H    2.285508412   2.250653038   0.881813544
  H    0.876627460   2.844933648   0.000000000
  H    1.484989270  -2.185966684  -0.875345550
  H    0.073161496  -1.549480502   0.000000000
  C    1.789754864  -0.259685524   0.000000000
  N    1.047005234   0.770946666   0.000000000
  C    1.658262946   2.089188694   0.000000000
  C    1.156685470  -1.620416722   0.000000000
  C    3.300256708  -0.212808580   0.000000000
