28
charge=0 charge_a=0 charge_b=0 selection_a=1-14 selection_b=15-28 scaling=1.25 benchmark_Eint=-4.480 benchmark_unit=kcal/mol group=NH-N
  H    0.128477238  -0.302780000   0.770852135
  H    3.715800068  -2.468248489  -0.114838831
  H    1.329395441  -2.426354797   0.571013751
  H    3.663122095   1.805883669  -0.412332930
  H    0.132418427   2.104758712   0.238482895
  H    4.867471023  -0.326115764  -0.603053292
  H    1.558373807   2.901292698  -0.131507890
  C    3.186349527  -1.530680186  -0.029510186
  C    1.850139755  -1.503454248   0.355495145
  C    1.164510678  -0.304583599   0.467952397
  C    1.805267167   0.907910804   0.187844752
  C    3.150728184   0.876751793  -0.197175846
  C    3.828642316  -0.328491296  -0.302446590
  N    1.137361806   2.117839540   0.337779885
  H   -3.329011818   0.809068018   1.820608754
  H   -2.941727956  -2.994342155  -0.112027631
  H   -3.433689178  -1.646167003   1.908387726
  H   -2.252521913   0.610945166  -2.318012934
  H   -3.158626360   2.766312545   0.424218339
  H   -2.358081852  -1.842204818  -2.226664239
  H   -2.783069345   2.690744550  -1.193204063
  C   -2.906610998  -1.915945892  -0.153927616
  C   -3.181423475  -1.157965419   0.977688764
  C   -3.128885914   0.227687704   0.930298084
  C   -2.798270885   0.878956402  -0.259025215
  C   -2.528274370   0.116361905  -1.396207050
  C   -2.582229671  -1.267449308  -1.339461716
  N   -2.642985629   2.272920031  -0.287064405
