28
charge=0 charge_a=0 charge_b=0 selection_a=1-14 selection_b=15-28 scaling=1.25 benchmark_Eint=-6.103 benchmark_unit=kcal/mol group=NH-N
  H   -0.140752529   0.906808992  -0.302004039
  H   -4.306846899   1.871875133  -0.618877927
  H   -1.921949148   2.522237598  -0.819399726
  H   -3.096491322  -2.042933425   0.636414597
  H    0.448933170  -1.373301996   0.191030218
  H   -4.872141214  -0.431241708   0.109004331
  H   -0.731739055  -2.544773557   0.550935695
  C   -3.525025742   1.163006428  -0.389414566
  C   -2.186262490   1.523380292  -0.499048840
  C   -1.177670274   0.618582647  -0.206922733
  C   -1.486833219  -0.684885248   0.208514728
  C   -2.837681217  -1.042184641   0.314895852
  C   -3.837608490  -0.128992940   0.018964160
  N   -0.481841056  -1.571490961   0.550083693
  H    5.301547497   0.591218214  -0.430755776
  H    4.796718936   1.903513974   0.640466837
  H    4.254461226   1.856627938  -1.040217664
  H    2.416667431   1.738363678   1.709256874
  H    4.249866903  -1.039809238  -1.818687304
  H    3.234359979   0.254023241  -2.456787730
  H    2.604134662  -1.390858209  -2.353085785
  H    3.463068812   0.495575817   2.363369982
  H    1.833735799   0.063805510   1.797550564
  C    3.259976200   0.438999214   0.236129972
  N    2.698120436  -0.416814551  -0.516768673
  C    3.226452527  -0.655453127  -1.849661380
  C    2.700445698   0.688675683   1.605770009
  C    4.471885964   1.246627853  -0.161757708
