24
charge=0 charge_a=0 charge_b=0 selection_a=1-14 selection_b=15-24 scaling=0.95 benchmark_Eint=-6.452 benchmark_unit=kcal/mol group=NH-N
  H   -0.060573619   1.393630652  -0.093483434
  H    4.222628340   1.256778336  -0.047759026
  H    2.107125878   2.548260306  -0.136693830
  H    1.956004408  -2.375989309   0.124357272
  H   -1.246715518  -0.717306453  -0.265801182
  H    4.120854232  -1.218425232   0.079522439
  H   -0.429454152  -2.195872837  -0.153609636
  C    3.269976586   0.748431566  -0.029952333
  C    2.081428653   1.468521692  -0.079030514
  C    0.855670438   0.821652947  -0.056654078
  C    0.787007747  -0.576156772   0.016148832
  C    1.988106927  -1.295630101   0.064446878
  C    3.208586476  -0.638857221   0.041526528
  N   -0.436603884  -1.220074287   0.087845508
  H   -2.379225742   1.078845968   1.311394916
  H   -3.874850537   1.761384223   0.656053832
  H   -2.314690354   2.119606118  -0.108598710
  H   -3.308817730   0.434695296  -1.387402129
  H   -3.926579799  -1.694235789  -0.626119836
  H   -3.392203988  -1.260520336   0.996689619
  H   -4.852579407  -0.518569939   0.328113187
  C   -2.895035977   1.344305733   0.388230926
  N   -2.982755630   0.168332806  -0.468686484
  C   -3.842377514  -0.872088184   0.082712317
