25
charge=0 charge_a=0 charge_b=0 selection_a=1-14 selection_b=15-25 scaling=0.9 benchmark_Eint=-6.025 benchmark_unit=kcal/mol group=NH-N
  H    0.651135723   0.253775596   1.402773994
  H    4.351660002   2.135944230   0.330674692
  H    2.220148068   2.136985236   1.599347035
  H    3.306556926  -1.663711231  -1.353210332
  H    0.007726505  -1.699561099   0.110540389
  H    4.877281736   0.212341733  -1.144361510
  H    1.112947771  -2.514682254  -0.869884856
  C    3.660158872   1.311388510   0.239612493
  C    2.463453444   1.308261863   0.948285642
  C    1.572866967   0.251757788   0.838274476
  C    1.858240638  -0.837204223   0.002400713
  C    3.066432243  -0.829326637  -0.706717411
  C    3.951488192   0.230869074  -0.585635951
  N    0.982411273  -1.907147403  -0.079407974
  H   -2.389568673   2.012762534  -1.529862855
  H   -0.531965924   0.431609573  -1.060407331
  C   -3.796215443   0.901278199  -0.331814764
  C   -2.555422054   1.150793694  -0.900791856
  C   -1.517000627   0.266026489  -0.643024197
  N   -1.655438696  -0.814853850   0.126391100
  C   -2.850365468  -1.047126046   0.669457819
  C   -3.948382419  -0.220777989   0.470570323
  H   -2.931199867  -1.930705797   1.289998720
  H   -4.895120080  -0.454150542   0.934933418
  H   -4.627901884   1.568397134  -0.509006059
