21
charge=0 charge_a=0 charge_b=0 selection_a=1-14 selection_b=15-21 scaling=1.0 benchmark_Eint=-8.672 benchmark_unit=kcal/mol group=NH-N
  H    0.039766108   0.799663417   1.876256840
  H   -2.723590222  -2.219363559   0.598919868
  H   -1.130712852  -1.324016640   2.277837855
  H   -1.939434071   1.172174643  -1.901218905
  H    0.708630930   2.408218295   0.155568143
  H   -3.117631817  -0.943902459  -1.491855451
  H   -0.232897919   2.688337939  -1.193012353
  C   -2.205262097  -1.289109937   0.419833388
  C   -1.312221523  -0.783021800   1.359456124
  C   -0.647232158   0.412658591   1.137462124
  C   -0.858960819   1.138257448  -0.043689049
  C   -1.761206355   0.625283853  -0.984454180
  C   -2.424940955  -0.570344186  -0.750349014
  N   -0.216182768   2.348960798  -0.245801118
  H    1.681814893  -1.335350569  -1.988718791
  H    1.338677982  -2.766506568  -0.975055988
  H    0.345259032  -1.291928442  -0.792804642
  C    1.329394565  -1.684845240  -1.022077432
  O    2.275605067  -1.258605285   0.011638518
  C    2.446138288   0.002521234   0.130658979
  N    2.638686571   1.133514526   0.267962467
