24
charge=0 charge_a=0 charge_b=0 selection_a=1-14 selection_b=15-24 scaling=1.5 benchmark_Eint=-2.536 benchmark_unit=kcal/mol group=NH-N
  H    0.129445245  -0.804407176   0.876196783
  H   -3.950273214  -1.877162994   0.118814843
  H   -1.656767585  -2.491634641   0.834959417
  H   -2.628680392   2.144536627  -0.545861398
  H    0.832193070   1.390111041   0.084356386
  H   -4.416140832   0.460555263  -0.565644069
  H   -0.283631532   2.584146876  -0.314861870
  C   -3.163789636  -1.137198037   0.129211999
  C   -1.876325820  -1.477925187   0.528755957
  C   -0.863389172  -0.531444900   0.547245522
  C   -1.115394101   0.790025364   0.155071662
  C   -2.414219749   1.127466170  -0.243805948
  C   -3.421221897   0.174528369  -0.253126401
  N   -0.108185810   1.743640625   0.209110527
  H    1.802046769  -1.488075623  -2.045206314
  H    3.468749367  -2.087625410  -2.337119886
  H    2.955239429  -0.457292901  -2.879500558
  H    5.571041028  -0.285837432   0.971356522
  H    3.898884958   0.292861345   1.261885004
  H    4.428327564  -1.335678699   1.791282602
  C    2.856289527  -1.217344586  -2.104360128
  N    3.231764142  -0.611290416  -0.830840920
  N    4.160213765  -1.177022234  -0.256516862
  C    4.519977227  -0.570255737   1.020667528
