27
charge=0 charge_a=0 charge_b=0 selection_a=1-14 selection_b=15-27 scaling=1.0 benchmark_Eint=-6.952 benchmark_unit=kcal/mol group=NH-N
  H   -0.146531428  -1.207372720   0.764421711
  H   -4.252689142  -1.468184152  -0.436071122
  H   -2.143906846  -2.556887896   0.284981138
  H   -2.316322736   2.348537459  -0.217178396
  H    0.939643561   0.949027122   0.477898721
  H   -4.315926169   0.999556269  -0.676294511
  H    0.038493512   2.362820950   0.244255415
  C   -3.372760610  -0.875948317  -0.233003066
  C   -2.187869226  -1.482330810   0.169955496
  C   -1.056456380  -0.726644129   0.433957895
  C   -1.078868239   0.667925181   0.294413883
  C   -2.276601603   1.272239520  -0.108461871
  C   -3.404144358   0.507730486  -0.365926149
  N    0.044609437   1.420259707   0.594584404
  H    3.868481893  -1.709346482   0.529376962
  H    3.150460887  -0.760042573   1.846472031
  H    2.143735399  -1.863880839   0.906513556
  H    1.458913871  -1.267250798  -1.316205436
  H    3.139420210  -1.091027831  -1.866352194
  H    1.992880909   0.254916189  -2.024131617
  H    4.633956650   0.509981017  -0.512944214
  H    3.386821546   1.745350570  -0.762227805
  C    2.970659159  -1.158012947   0.849031865
  N    2.632771323  -0.074812842  -0.060699680
  C    2.294843252  -0.573982155  -1.385885181
  C    3.691484887   0.920704244  -0.118967419
  H    3.882289860   1.315225747   0.878013074
