27
charge=0 charge_a=0 charge_b=0 selection_a=1-14 selection_b=15-27 scaling=0.9 benchmark_Eint=-6.065 benchmark_unit=kcal/mol group=NH-N
  H   -0.146531428  -1.207372720   0.764421711
  H   -4.252689142  -1.468184152  -0.436071122
  H   -2.143906846  -2.556887896   0.284981138
  H   -2.316322736   2.348537459  -0.217178396
  H    0.939643561   0.949027122   0.477898721
  H   -4.315926169   0.999556269  -0.676294511
  H    0.038493512   2.362820950   0.244255415
  C   -3.372760610  -0.875948317  -0.233003066
  C   -2.187869226  -1.482330810   0.169955496
  C   -1.056456380  -0.726644129   0.433957895
  C   -1.078868239   0.667925181   0.294413883
  C   -2.276601603   1.272239520  -0.108461871
  C   -3.404144358   0.507730486  -0.365926149
  N    0.044609437   1.420259707   0.594584404
  H    3.699169117  -1.606962486   0.583236802
  H    2.981148111  -0.657658577   1.900331871
  H    1.974422623  -1.761496843   0.960373396
  H    1.289601095  -1.164866802  -1.262345596
  H    2.970107434  -0.988643835  -1.812492354
  H    1.823568133   0.357300185  -1.970271777
  H    4.464643874   0.612365013  -0.459084374
  H    3.217508770   1.847734566  -0.708367965
  C    2.801346383  -1.055628951   0.902891705
  N    2.463458547   0.027571154  -0.006839840
  C    2.125530476  -0.471598159  -1.332025341
  C    3.522172111   1.023088240  -0.065107579
  H    3.712977084   1.417609743   0.931872914
