27
charge=0 charge_a=0 charge_b=0 selection_a=1-14 selection_b=15-27 scaling=2.0 benchmark_Eint=-1.152 benchmark_unit=kcal/mol group=NH-N
  H   -0.146531428  -1.207372720   0.764421711
  H   -4.252689142  -1.468184152  -0.436071122
  H   -2.143906846  -2.556887896   0.284981138
  H   -2.316322736   2.348537459  -0.217178396
  H    0.939643561   0.949027122   0.477898721
  H   -4.315926169   0.999556269  -0.676294511
  H    0.038493512   2.362820950   0.244255415
  C   -3.372760610  -0.875948317  -0.233003066
  C   -2.187869226  -1.482330810   0.169955496
  C   -1.056456380  -0.726644129   0.433957895
  C   -1.078868239   0.667925181   0.294413883
  C   -2.276601603   1.272239520  -0.108461871
  C   -3.404144358   0.507730486  -0.365926149
  N    0.044609437   1.420259707   0.594584404
  H    5.561609655  -2.733186446  -0.009221439
  H    4.843588649  -1.783882537   1.307873630
  H    3.836863161  -2.887720803   0.367915155
  H    3.152041633  -2.291090762  -1.854803837
  H    4.832547972  -2.114867795  -2.404950595
  H    3.686008671  -0.768923775  -2.562730018
  H    6.327084412  -0.513858947  -1.051542615
  H    5.079949308   0.721510606  -1.300826206
  C    4.663786921  -2.181852911   0.310433464
  N    4.325899085  -1.098652806  -0.599298081
  C    3.987971014  -1.597822119  -1.924483582
  C    5.384612649  -0.103135720  -0.657565820
  H    5.575417622   0.291385783   0.339414673
