24
charge=0 charge_a=0 charge_b=0 selection_a=1-10 selection_b=11-24 scaling=1.1 benchmark_Eint=-4.382 benchmark_unit=kcal/mol group=NH-N
  H    2.548677391  -2.094571129  -1.130111016
  H    0.980266659  -1.605165583  -0.468281267
  H    1.506913609  -1.013692285  -2.052155703
  H    1.920756964   0.696645292  -0.506983684
  H    3.354256073   0.568361576   1.329328203
  H    3.693181246  -1.117243491   0.949828074
  H    2.098799884  -0.665703403   1.566351617
  C    1.848233821  -1.261129901  -1.048370045
  N    2.523284366  -0.114189272  -0.462549827
  C    2.924790818  -0.342647145   0.913546034
  H   -0.398857270   0.926265636   2.135913259
  H   -2.912250110  -2.051595904   0.356816207
  H   -1.710075388  -1.143609048   2.325151214
  H   -1.478457602   1.229248913  -1.995150849
  H    0.113153268   2.869432025   0.787662852
  H   -2.787852894  -0.841749694  -1.802859854
  H   -0.292315686   2.978661538  -0.824644211
  C   -2.341940874  -1.138377417   0.274706522
  C   -1.667405402  -0.626686115   1.376774521
  C   -0.930982940   0.543736512   1.275149742
  C   -0.856801456   1.228119119   0.060184510
  C   -1.536597746   0.713329008  -1.045726959
  C   -2.270455280  -0.457821165  -0.934892650
  N   -0.048277857   2.362236021  -0.066961353
