16
charge=0 charge_a=0 charge_b=0 selection_a=1-10 selection_b=11-16 scaling=2.0 benchmark_Eint=-0.414 benchmark_unit=kcal/mol group=NH-N
  H   -2.486652561   1.098511774  -1.278416863
  H   -0.724688219   0.950434259  -1.251370383
  H   -1.712016863  -0.266892172  -2.081735500
  H   -1.122208145  -1.148965385   0.000000000
  H   -1.712016863  -0.266892172   2.081735500
  H   -2.486652561   1.098511774   1.278416863
  H   -0.724688219   0.950434259   1.251370383
  C   -1.668211310   0.380075321  -1.207384204
  N   -1.812145176  -0.409702860   0.000000000
  C   -1.668211310   0.380075321   1.207384204
  H    5.917270771   0.723063339   0.000000000
  H    4.539055412   1.399032086  -0.884444609
  H    4.539055412   1.399032086   0.884444609
  C    4.834847189   0.838020000   0.000000000
  C    4.191673136  -0.464978113   0.000000000
  N    3.678928293  -1.492260233   0.000000000
