24
charge=0 charge_a=0 charge_b=0 selection_a=1-14 selection_b=15-24 scaling=0.85 benchmark_Eint=-3.570 benchmark_unit=kcal/mol group=NH-N
  H    0.129445245  -0.804407176   0.876196783
  H   -3.950273214  -1.877162994   0.118814843
  H   -1.656767585  -2.491634641   0.834959417
  H   -2.628680392   2.144536627  -0.545861398
  H    0.832193070   1.390111041   0.084356386
  H   -4.416140832   0.460555263  -0.565644069
  H   -0.283631532   2.584146876  -0.314861870
  C   -3.163789636  -1.137198037   0.129211999
  C   -1.876325820  -1.477925187   0.528755957
  C   -0.863389172  -0.531444900   0.547245522
  C   -1.115394101   0.790025364   0.155071662
  C   -2.414219749   1.127466170  -0.243805948
  C   -3.421221897   0.174528369  -0.253126401
  N   -0.108185810   1.743640625   0.209110527
  H    0.762232638  -0.620801658  -1.648620814
  H    2.428935236  -1.220351445  -1.940534386
  H    1.915425298   0.409981064  -2.482915059
  H    4.531226897   0.581436533   1.367942021
  H    2.859070827   1.160135310   1.658470503
  H    3.388513433  -0.468404734   2.187868102
  C    1.816475396  -0.350070621  -1.707774628
  N    2.191950011   0.255983549  -0.434255420
  N    3.120399634  -0.309748269   0.140068637
  C    3.480163096   0.297018228   1.417253028
