24
charge=0 charge_a=0 charge_b=0 selection_a=1-10 selection_b=11-24 scaling=1.5 benchmark_Eint=-1.840 benchmark_unit=kcal/mol group=NH-N
  H    2.548677391  -2.094571129  -1.130111016
  H    0.980266659  -1.605165583  -0.468281267
  H    1.506913609  -1.013692285  -2.052155703
  H    1.920756964   0.696645292  -0.506983684
  H    3.354256073   0.568361576   1.329328203
  H    3.693181246  -1.117243491   0.949828074
  H    2.098799884  -0.665703403   1.566351617
  C    1.848233821  -1.261129901  -1.048370045
  N    2.523284366  -0.114189272  -0.462549827
  C    2.924790818  -0.342647145   0.913546034
  H   -1.114869932   1.531934992   2.295921380
  H   -3.628262772  -1.445926548   0.516824328
  H   -2.426088050  -0.537939692   2.485159334
  H   -2.194470264   1.834918269  -1.835142728
  H   -0.602859394   3.475101381   0.947670972
  H   -3.503865556  -0.236080338  -1.642851734
  H   -1.008328348   3.584330894  -0.664636090
  C   -3.057953536  -0.532708061   0.434714642
  C   -2.383418064  -0.021016759   1.536782642
  C   -1.646995602   1.149405868   1.435157862
  C   -1.572814118   1.833788475   0.220192630
  C   -2.252610408   1.318998364  -0.885718838
  C   -2.986467942   0.147848191  -0.774884530
  N   -0.764290518   2.967905377   0.093046768
