24
charge=0 charge_a=0 charge_b=0 selection_a=1-14 selection_b=15-24 scaling=0.85 benchmark_Eint=-4.510 benchmark_unit=kcal/mol group=NH-N
  H   -0.060573619   1.393630652  -0.093483434
  H    4.222628340   1.256778336  -0.047759026
  H    2.107125878   2.548260306  -0.136693830
  H    1.956004408  -2.375989309   0.124357272
  H   -1.246715518  -0.717306453  -0.265801182
  H    4.120854232  -1.218425232   0.079522439
  H   -0.429454152  -2.195872837  -0.153609636
  C    3.269976586   0.748431566  -0.029952333
  C    2.081428653   1.468521692  -0.079030514
  C    0.855670438   0.821652947  -0.056654078
  C    0.787007747  -0.576156772   0.016148832
  C    1.988106927  -1.295630101   0.064446878
  C    3.208586476  -0.638857221   0.041526528
  N   -0.436603884  -1.220074287   0.087845508
  H   -2.196484677   0.985620783   1.332751263
  H   -3.692109472   1.668159038   0.677410179
  H   -2.131949289   2.026380933  -0.087242363
  H   -3.126076665   0.341470111  -1.366045782
  H   -3.743838734  -1.787460974  -0.604763489
  H   -3.209462923  -1.353745521   1.018045966
  H   -4.669838342  -0.611795124   0.349469534
  C   -2.712294912   1.251080548   0.409587273
  N   -2.800014565   0.075107621  -0.447330137
  C   -3.659636449  -0.965313369   0.104068664
