24
charge=0 charge_a=0 charge_b=0 selection_a=1-14 selection_b=15-24 scaling=2.0 benchmark_Eint=-1.099 benchmark_unit=kcal/mol group=NH-N
  H   -0.060573619   1.393630652  -0.093483434
  H    4.222628340   1.256778336  -0.047759026
  H    2.107125878   2.548260306  -0.136693830
  H    1.956004408  -2.375989309   0.124357272
  H   -1.246715518  -0.717306453  -0.265801182
  H    4.120854232  -1.218425232   0.079522439
  H   -0.429454152  -2.195872837  -0.153609636
  C    3.269976586   0.748431566  -0.029952333
  C    2.081428653   1.468521692  -0.079030514
  C    0.855670438   0.821652947  -0.056654078
  C    0.787007747  -0.576156772   0.016148832
  C    1.988106927  -1.295630101   0.064446878
  C    3.208586476  -0.638857221   0.041526528
  N   -0.436603884  -1.220074287   0.087845508
  H   -4.298006918   2.057710413   1.087153266
  H   -5.793631713   2.740248668   0.431812182
  H   -4.233471530   3.098470563  -0.332840360
  H   -5.227598906   1.413559741  -1.611643779
  H   -5.845360975  -0.715371344  -0.850361486
  H   -5.310985164  -0.281655891   0.772447969
  H   -6.771360583   0.460294506   0.103871537
  C   -4.813817153   2.323170178   0.163989276
  N   -4.901536806   1.147197251  -0.692928134
  C   -5.761158690   0.106776261  -0.141529333
