24
charge=0 charge_a=0 charge_b=0 selection_a=1-14 selection_b=15-24 scaling=1.0 benchmark_Eint=-6.628 benchmark_unit=kcal/mol group=NH-N
  H   -0.060573619   1.393630652  -0.093483434
  H    4.222628340   1.256778336  -0.047759026
  H    2.107125878   2.548260306  -0.136693830
  H    1.956004408  -2.375989309   0.124357272
  H   -1.246715518  -0.717306453  -0.265801182
  H    4.120854232  -1.218425232   0.079522439
  H   -0.429454152  -2.195872837  -0.153609636
  C    3.269976586   0.748431566  -0.029952333
  C    2.081428653   1.468521692  -0.079030514
  C    0.855670438   0.821652947  -0.056654078
  C    0.787007747  -0.576156772   0.016148832
  C    1.988106927  -1.295630101   0.064446878
  C    3.208586476  -0.638857221   0.041526528
  N   -0.436603884  -1.220074287   0.087845508
  H   -2.470596274   1.125458561   1.300716742
  H   -3.966221069   1.807996816   0.645375658
  H   -2.406060886   2.166218711  -0.119276884
  H   -3.400188262   0.481307889  -1.398080303
  H   -4.017950331  -1.647623196  -0.636798010
  H   -3.483574520  -1.213907743   0.986011445
  H   -4.943949939  -0.471957346   0.317435013
  C   -2.986406509   1.390918326   0.377552752
  N   -3.074126162   0.214945399  -0.479364658
  C   -3.933748046  -0.825475591   0.072034143
