21
charge=0 charge_a=0 charge_b=0 selection_a=1-14 selection_b=15-21 scaling=0.85 benchmark_Eint=-6.318 benchmark_unit=kcal/mol group=NH-N
  H    0.039766108   0.799663417   1.876256840
  H   -2.723590222  -2.219363559   0.598919868
  H   -1.130712852  -1.324016640   2.277837855
  H   -1.939434071   1.172174643  -1.901218905
  H    0.708630930   2.408218295   0.155568143
  H   -3.117631817  -0.943902459  -1.491855451
  H   -0.232897919   2.688337939  -1.193012353
  C   -2.205262097  -1.289109937   0.419833388
  C   -1.312221523  -0.783021800   1.359456124
  C   -0.647232158   0.412658591   1.137462124
  C   -0.858960819   1.138257448  -0.043689049
  C   -1.761206355   0.625283853  -0.984454180
  C   -2.424940955  -0.570344186  -0.750349014
  N   -0.216182768   2.348960798  -0.245801118
  H    1.392306547  -1.144145004  -2.005577940
  H    1.049169636  -2.575301003  -0.991915137
  H    0.055750686  -1.100722877  -0.809663791
  C    1.039886219  -1.493639675  -1.038936581
  O    1.986096721  -1.067399720  -0.005220631
  C    2.156629942   0.193726799   0.113799830
  N    2.349178225   1.324720091   0.251103318
