27
charge=0 charge_a=0 charge_b=0 selection_a=1-14 selection_b=15-27 scaling=1.05 benchmark_Eint=-6.856 benchmark_unit=kcal/mol group=NH-N
  H   -0.146531428  -1.207372720   0.764421711
  H   -4.252689142  -1.468184152  -0.436071122
  H   -2.143906846  -2.556887896   0.284981138
  H   -2.316322736   2.348537459  -0.217178396
  H    0.939643561   0.949027122   0.477898721
  H   -4.315926169   0.999556269  -0.676294511
  H    0.038493512   2.362820950   0.244255415
  C   -3.372760610  -0.875948317  -0.233003066
  C   -2.187869226  -1.482330810   0.169955496
  C   -1.056456380  -0.726644129   0.433957895
  C   -1.078868239   0.667925181   0.294413883
  C   -2.276601603   1.272239520  -0.108461871
  C   -3.404144358   0.507730486  -0.365926149
  N    0.044609437   1.420259707   0.594584404
  H    3.953138281  -1.760538480   0.502447042
  H    3.235117275  -0.811234571   1.819542111
  H    2.228391787  -1.915072837   0.879583636
  H    1.543570259  -1.318442796  -1.343135356
  H    3.224076598  -1.142219829  -1.893282114
  H    2.077537297   0.203724191  -2.051061537
  H    4.718613038   0.458789019  -0.539874134
  H    3.471477934   1.694158572  -0.789157725
  C    3.055315547  -1.209204945   0.822101945
  N    2.717427711  -0.126004840  -0.087629600
  C    2.379499640  -0.625174153  -1.412815101
  C    3.776141275   0.869512246  -0.145897339
  H    3.966946248   1.264033749   0.851083154
