14
charge=0 charge_a=0 charge_b=0 selection_a=1-10 selection_b=11-14 scaling=1.0 benchmark_Eint=-3.468 benchmark_unit=kcal/mol group=NH-N
  H   -2.244111562   1.285322419   0.205481390
  H   -1.220631112   1.256452127  -1.235255710
  H   -0.673400262   2.081630632   0.237561012
  H    0.392014890   0.000000000   0.198501901
  H   -0.673400262  -2.081630632   0.237561012
  H   -2.244111562  -1.285322419   0.205481390
  H   -1.220631112  -1.256452127  -1.235255710
  C   -1.208955397   1.208540059  -0.133824979
  N   -0.603695898   0.000000000   0.392539194
  C   -1.208955397  -1.208540059  -0.133824979
  N    2.602581423   0.000000000  -0.056489743
  H    2.909459809   0.000000000   0.908206573
  H    3.004763436  -0.815286226  -0.501410160
  H    3.004763436   0.815286226  -0.501410160
