21
charge=0 charge_a=0 charge_b=0 selection_a=1-14 selection_b=15-21 scaling=1.05 benchmark_Eint=-6.346 benchmark_unit=kcal/mol group=NH-N
  H    0.558345965  -0.995343081   1.230116655
  H   -3.373490160  -1.604368353  -0.365032651
  H   -1.365080970  -2.466761858   0.807082935
  H   -1.482730516   2.225542424  -0.713801138
  H    1.667881940   1.085779108   0.619693975
  H   -3.411157274   0.759682363  -1.114586020
  H    0.796879948   2.397667214   0.007852898
  C   -2.525072275  -0.960347833  -0.187116913
  C   -1.396223004  -1.440134028   0.468105813
  C   -0.305641606  -0.617059230   0.701573620
  C   -0.313007201   0.718552543   0.275156988
  C   -1.455024006   1.195870567  -0.380959524
  C   -2.542429050   0.365756446  -0.604996219
  N    0.765227607   1.545599532   0.540920467
  N    3.374894908  -0.279739720   0.292856422
  H    3.337850340  -1.053723825   0.943312552
  H    4.309072786   0.103712837   0.352000886
  C    3.081111812  -0.734303993  -1.071623353
  H    3.132183558   0.116565155  -1.748915400
  H    3.756625319  -1.509672693  -1.445077043
  H    2.063010857  -1.117056466  -1.107507193
