16
charge=0 charge_a=0 charge_b=0 selection_a=1-10 selection_b=11-16 scaling=0.9 benchmark_Eint=-2.554 benchmark_unit=kcal/mol group=NH-N
  H   -2.486652561   1.098511774  -1.278416863
  H   -0.724688219   0.950434259  -1.251370383
  H   -1.712016863  -0.266892172  -2.081735500
  H   -1.122208145  -1.148965385   0.000000000
  H   -1.712016863  -0.266892172   2.081735500
  H   -2.486652561   1.098511774   1.278416863
  H   -0.724688219   0.950434259   1.251370383
  C   -1.668211310   0.380075321  -1.207384204
  N   -1.812145176  -0.409702860   0.000000000
  C   -1.668211310   0.380075321   1.207384204
  H    3.276645730   0.911875505   0.000000000
  H    1.898430371   1.587844252  -0.884444609
  H    1.898430371   1.587844252   0.884444609
  C    2.194222148   1.026832166   0.000000000
  C    1.551048095  -0.276165947   0.000000000
  N    1.038303252  -1.303448067   0.000000000
