28
charge=0 charge_a=0 charge_b=0 selection_a=1-14 selection_b=15-28 scaling=2.0 benchmark_Eint=-1.568 benchmark_unit=kcal/mol group=NH-N
  H   -0.140752529   0.906808992  -0.302004039
  H   -4.306846899   1.871875133  -0.618877927
  H   -1.921949148   2.522237598  -0.819399726
  H   -3.096491322  -2.042933425   0.636414597
  H    0.448933170  -1.373301996   0.191030218
  H   -4.872141214  -0.431241708   0.109004331
  H   -0.731739055  -2.544773557   0.550935695
  C   -3.525025742   1.163006428  -0.389414566
  C   -2.186262490   1.523380292  -0.499048840
  C   -1.177670274   0.618582647  -0.206922733
  C   -1.486833219  -0.684885248   0.208514728
  C   -2.837681217  -1.042184641   0.314895852
  C   -3.837608490  -0.128992940   0.018964160
  N   -0.481841056  -1.571490961   0.550083693
  H    6.651059857   1.165110681  -0.855435111
  H    6.146231296   2.477406441   0.215787502
  H    5.603973586   2.430520405  -1.464896999
  H    3.766179791   2.312256145   1.284577539
  H    5.599379263  -0.465916771  -2.243366639
  H    4.583872339   0.827915708  -2.881467065
  H    3.953647022  -0.816965742  -2.777765120
  H    4.812581172   1.069468284   1.938690647
  H    3.183248159   0.637697977   1.372871229
  C    4.609488560   1.012891681  -0.188549363
  N    4.047632796   0.157077916  -0.941448008
  C    4.575964887  -0.081560660  -2.274340715
  C    4.049958058   1.262568150   1.181090674
  C    5.821398324   1.820520320  -0.586437043
