28
charge=0 charge_a=0 charge_b=0 selection_a=1-14 selection_b=15-28 scaling=0.9 benchmark_Eint=-6.815 benchmark_unit=kcal/mol group=NH-N
  H   -0.140752529   0.906808992  -0.302004039
  H   -4.306846899   1.871875133  -0.618877927
  H   -1.921949148   2.522237598  -0.819399726
  H   -3.096491322  -2.042933425   0.636414597
  H    0.448933170  -1.373301996   0.191030218
  H   -4.872141214  -0.431241708   0.109004331
  H   -0.731739055  -2.544773557   0.550935695
  C   -3.525025742   1.163006428  -0.389414566
  C   -2.186262490   1.523380292  -0.499048840
  C   -1.177670274   0.618582647  -0.206922733
  C   -1.486833219  -0.684885248   0.208514728
  C   -2.837681217  -1.042184641   0.314895852
  C   -3.837608490  -0.128992940   0.018964160
  N   -0.481841056  -1.571490961   0.550083693
  H    4.671775063   0.323401729  -0.232572087
  H    4.166946502   1.635697489   0.838650526
  H    3.624688792   1.588811453  -0.842033975
  H    1.786894997   1.470547193   1.907440563
  H    3.620094469  -1.307625723  -1.620503615
  H    2.604587545  -0.013793244  -2.258604041
  H    1.974362228  -1.658674694  -2.154902096
  H    2.833296378   0.227759332   2.561553671
  H    1.203963365  -0.204010975   1.995734253
  C    2.630203766   0.171182729   0.434313661
  N    2.068348002  -0.684631036  -0.318584984
  C    2.596680093  -0.923269612  -1.651477691
  C    2.070673264   0.420859198   1.803953698
  C    3.842113530   0.978811368   0.036425981
