27
charge=0 charge_a=0 charge_b=0 selection_a=1-14 selection_b=15-27 scaling=0.85 benchmark_Eint=-4.688 benchmark_unit=kcal/mol group=NH-N
  H   -0.146531428  -1.207372720   0.764421711
  H   -4.252689142  -1.468184152  -0.436071122
  H   -2.143906846  -2.556887896   0.284981138
  H   -2.316322736   2.348537459  -0.217178396
  H    0.939643561   0.949027122   0.477898721
  H   -4.315926169   0.999556269  -0.676294511
  H    0.038493512   2.362820950   0.244255415
  C   -3.372760610  -0.875948317  -0.233003066
  C   -2.187869226  -1.482330810   0.169955496
  C   -1.056456380  -0.726644129   0.433957895
  C   -1.078868239   0.667925181   0.294413883
  C   -2.276601603   1.272239520  -0.108461871
  C   -3.404144358   0.507730486  -0.365926149
  N    0.044609437   1.420259707   0.594584404
  H    3.614512729  -1.555770487   0.610166722
  H    2.896491723  -0.606466578   1.927261791
  H    1.889766235  -1.710304844   0.987303316
  H    1.204944707  -1.113674803  -1.235415676
  H    2.885451046  -0.937451836  -1.785562434
  H    1.738911745   0.408492184  -1.943341857
  H    4.379987486   0.663557012  -0.432154454
  H    3.132852382   1.898926565  -0.681438045
  C    2.716689995  -1.004436952   0.929821625
  N    2.378802159   0.078763153   0.020090080
  C    2.040874088  -0.420406160  -1.305095421
  C    3.437515723   1.074280239  -0.038177659
  H    3.628320696   1.468801742   0.958802834
