21
charge=0 charge_a=0 charge_b=0 selection_a=1-14 selection_b=15-21 scaling=2.0 benchmark_Eint=-1.571 benchmark_unit=kcal/mol group=NH-N
  H    0.039766108   0.799663417   1.876256840
  H   -2.723590222  -2.219363559   0.598919868
  H   -1.130712852  -1.324016640   2.277837855
  H   -1.939434071   1.172174643  -1.901218905
  H    0.708630930   2.408218295   0.155568143
  H   -3.117631817  -0.943902459  -1.491855451
  H   -0.232897919   2.688337939  -1.193012353
  C   -2.205262097  -1.289109937   0.419833388
  C   -1.312221523  -0.783021800   1.359456124
  C   -0.647232158   0.412658591   1.137462124
  C   -0.858960819   1.138257448  -0.043689049
  C   -1.761206355   0.625283853  -0.984454180
  C   -2.424940955  -0.570344186  -0.750349014
  N   -0.216182768   2.348960798  -0.245801118
  H    3.611870534  -2.610054338  -1.876324467
  H    3.268733623  -4.041210337  -0.862661664
  H    2.275314673  -2.566632211  -0.680410318
  C    3.259450206  -2.959549009  -0.909683108
  O    4.205660708  -2.533309054   0.124032842
  C    4.376193929  -1.272182535   0.243053303
  N    4.568742212  -0.141189243   0.380356791
