21
charge=0 charge_a=0 charge_b=0 selection_a=1-10 selection_b=11-21 scaling=0.9 benchmark_Eint=-3.257 benchmark_unit=kcal/mol group=NH-N
  H   -3.353803711   1.272267014  -1.167297224
  H   -1.585531593   1.257268080  -1.112775048
  H   -2.516079284   2.082630005   0.153474352
  H   -1.843472831  -0.000011582   0.989072448
  H   -2.516028140  -2.082651577   0.153428397
  H   -3.353771831  -1.272279939  -1.167325621
  H   -1.585500053  -1.257238957  -1.112802237
  C   -2.496662400   1.207471253  -0.494808021
  N   -2.590761027  -0.000013353   0.305553784
  C   -2.496632391  -1.207478014  -0.494834622
  H    2.050160984  -2.146597323  -0.727921226
  H    0.296571163  -2.052770329   1.023264854
  C    2.193855694   0.000001784  -0.868502381
  C    1.693014350  -1.193074485  -0.367547503
  C    0.711962593  -1.140360972   0.614076766
  N    0.224390991   0.000002355   1.103327088
  C    0.711947981   1.140365367   0.614061531
  C    1.692999066   1.193078307  -0.367563423
  H    0.296544887   2.052774832   1.023237423
  H    2.050133513   2.146600882  -0.727949890
  H    2.956650990   0.000001544  -1.634182527
