21
charge=0 charge_a=0 charge_b=0 selection_a=1-10 selection_b=11-21 scaling=0.95 benchmark_Eint=-3.807 benchmark_unit=kcal/mol group=NH-N
  H   -3.353803711   1.272267014  -1.167297224
  H   -1.585531593   1.257268080  -1.112775048
  H   -2.516079284   2.082630005   0.153474352
  H   -1.843472831  -0.000011582   0.989072448
  H   -2.516028140  -2.082651577   0.153428397
  H   -3.353771831  -1.272279939  -1.167325621
  H   -1.585500053  -1.257238957  -1.112802237
  C   -2.496662400   1.207471253  -0.494808021
  N   -2.590761027  -0.000013353   0.305553784
  C   -2.496632391  -1.207478014  -0.494834622
  H    2.165042308  -2.146596548  -0.721573746
  H    0.411452487  -2.052769554   1.029612334
  C    2.308737018   0.000002559  -0.862154901
  C    1.807895674  -1.193073710  -0.361200023
  C    0.826843917  -1.140360197   0.620424246
  N    0.339272315   0.000003130   1.109674568
  C    0.826829305   1.140366142   0.620409011
  C    1.807880390   1.193079082  -0.361215943
  H    0.411426211   2.052775607   1.029584903
  H    2.165014837   2.146601657  -0.721602410
  H    3.071532314   0.000002319  -1.627835047
