23
charge=0 charge_a=0 charge_b=0 selection_a=1-10 selection_b=11-23 scaling=1.25 benchmark_Eint=-3.497 benchmark_unit=kcal/mol group=NH-N
  H    3.324946752   1.321814958   0.019734746
  H    2.032048822   1.226305196  -1.180803076
  H    1.767360146   2.070425821   0.358536725
  H    0.785471271  -0.041691923   0.554950738
  H    1.907769512  -2.089143503   0.428780634
  H    3.412727945  -1.249253617   0.066570360
  H    2.119383040  -1.281306009  -1.137614097
  C    2.245821590   1.204989119  -0.098678281
  N    1.800839776  -0.007811466   0.560405562
  C    2.328605459  -1.209523646  -0.057092692
  H   -3.342324854   1.485478664  -0.177490437
  H   -1.668207476   2.066691645  -0.264661281
  H   -2.320396686   1.497763425   1.273771271
  H   -2.615563902  -0.854516465   1.653247425
  H   -3.660009418  -1.046803130   0.231064200
  H   -2.180002848  -2.011850943   0.393764397
  H   -2.699177882  -0.207172384  -2.021350605
  H   -1.290278566  -1.235384700  -1.692501319
  C   -2.318829922   1.326175131   0.198434439
  N   -1.822683596  -0.009527414  -0.085569853
  C   -2.614367666  -1.030389130   0.578631666
  C   -1.721790516  -0.251453836  -1.514894647
  H   -1.068922116   0.492614287  -1.968921555
