21
charge=0 charge_a=0 charge_b=0 selection_a=1-10 selection_b=11-21 scaling=1.1 benchmark_Eint=-3.738 benchmark_unit=kcal/mol group=NH-N
  H   -3.353803711   1.272267014  -1.167297224
  H   -1.585531593   1.257268080  -1.112775048
  H   -2.516079284   2.082630005   0.153474352
  H   -1.843472831  -0.000011582   0.989072448
  H   -2.516028140  -2.082651577   0.153428397
  H   -3.353771831  -1.272279939  -1.167325621
  H   -1.585500053  -1.257238957  -1.112802237
  C   -2.496662400   1.207471253  -0.494808021
  N   -2.590761027  -0.000013353   0.305553784
  C   -2.496632391  -1.207478014  -0.494834622
  H    2.509686278  -2.146594225  -0.702531306
  H    0.756096457  -2.052767231   1.048654774
  C    2.653380988   0.000004882  -0.843112461
  C    2.152539644  -1.193071387  -0.342157583
  C    1.171487887  -1.140357874   0.639466686
  N    0.683916285   0.000005453   1.128717008
  C    1.171473275   1.140368465   0.639451451
  C    2.152524360   1.193081405  -0.342173503
  H    0.756070181   2.052777930   1.048627343
  H    2.509658807   2.146603980  -0.702559970
  H    3.416176284   0.000004642  -1.608792607
