17
charge=0 charge_a=0 charge_b=0 selection_a=1-7 selection_b=8-17 scaling=1.0 benchmark_Eint=-4.335 benchmark_unit=kcal/mol group=NH-N
  N   -1.875749101  -0.527593336  -0.507110752
  H   -0.899209159  -0.392815787  -0.754977708
  H   -2.424055453  -0.415062006  -1.348985884
  C   -2.280043739   0.444347452   0.504445077
  H   -3.328104703   0.294754510   0.764568226
  H   -2.153750340   1.496594190   0.217066259
  H   -1.699713716   0.280090518   1.412986256
  H    0.733312221   1.486719401   0.758750109
  H    2.473696525   1.400915560   0.461333297
  H    1.371866777   1.974822543  -0.807610768
  H    1.869833457  -0.267569730  -1.289608591
  H    1.348299959  -2.104156215   0.070170942
  H    0.707376800  -1.014289262   1.289968896
  H    2.452757374  -1.067513460   1.000842287
  C    1.484936840   1.256989117   0.003117741
  N    1.266346983  -0.092344814  -0.498203143
  C    1.467826719  -1.118727509   0.515906045
