20
charge=0 charge_a=0 charge_b=0 selection_a=1-10 selection_b=11-20 scaling=1.05 benchmark_Eint=-3.505 benchmark_unit=kcal/mol group=NH-N
  H   -2.563513201   1.555150543   1.174823687
  H   -1.262086062   0.452239289   1.639296856
  H   -0.900681679   1.938132759   0.740774948
  H   -0.901640814   0.170279652  -0.794662965
  H   -2.744521185  -1.167203038  -1.334561876
  H   -3.709186598  -0.327597723  -0.122796438
  H   -2.415824094  -1.414381040   0.392386715
  C   -1.617666090   1.124758755   0.841909782
  N   -1.801777554   0.468052537  -0.439142995
  C   -2.701623270  -0.668142705  -0.367643004
  H    1.358197874  -2.705595912  -0.399438620
  H    1.861433522  -2.062596899   1.198348811
  H    0.139519839  -2.080811914   0.700132128
  H    1.981515935   2.165311139   0.412148943
  H    1.505623078   1.529819860  -1.195481092
  H    3.221475379   1.567412467  -0.677047082
  C    1.168767731  -1.951511990   0.364357883
  N    1.272718493  -0.637768488  -0.262746126
  N    2.100083908   0.102284821   0.267120500
  C    2.190864045   1.419331635  -0.354623438
