11
charge=0 charge_a=0 charge_b=0 selection_a=1-7 selection_b=8-11 scaling=0.8 benchmark_Eint=-0.158 benchmark_unit=kcal/mol group=NH-N
  N   -0.884101126  -0.681387473  -0.069541677
  H    0.088170033  -0.487710679   0.148735491
  H   -1.213579512  -1.368555024   0.594944779
  C   -1.679766174   0.540233720   0.016954691
  H   -2.716435461   0.325500967  -0.243685036
  H   -1.675988310   1.029804861   0.999590641
  H   -1.309070780   1.261636343  -0.711516426
  N    1.822307361  -0.000147054   0.047955341
  H    1.903218354  -0.294762765  -0.917303806
  H    2.034808874   0.988853419   0.080708843
  H    2.542253326  -0.480878405   0.572169848
