20
charge=0 charge_a=0 charge_b=0 selection_a=1-10 selection_b=11-20 scaling=0.8 benchmark_Eint=-0.053 benchmark_unit=kcal/mol group=NH-N
  H   -2.563513201   1.555150543   1.174823687
  H   -1.262086062   0.452239289   1.639296856
  H   -0.900681679   1.938132759   0.740774948
  H   -0.901640814   0.170279652  -0.794662965
  H   -2.744521185  -1.167203038  -1.334561876
  H   -3.709186598  -0.327597723  -0.122796438
  H   -2.415824094  -1.414381040   0.392386715
  C   -1.617666090   1.124758755   0.841909782
  N   -1.801777554   0.468052537  -0.439142995
  C   -2.701623270  -0.668142705  -0.367643004
  H    0.840493277  -2.513203498  -0.526085486
  H    1.343728925  -1.870204485   1.071701945
  H   -0.378184758  -1.888419500   0.573485262
  H    1.463811338   2.357703553   0.285502077
  H    0.987918481   1.722212274  -1.322127958
  H    2.703770782   1.759804881  -0.803693948
  C    0.651063134  -1.759119576   0.237711017
  N    0.755013896  -0.445376074  -0.389392992
  N    1.582379311   0.294677235   0.140473634
  C    1.673159448   1.611724049  -0.481270304
