20
charge=0 charge_a=0 charge_b=0 selection_a=1-10 selection_b=11-20 scaling=1.25 benchmark_Eint=-3.346 benchmark_unit=kcal/mol group=NH-N
  H   -3.250283383  -0.913303673   0.129661131
  H   -1.833395115  -1.480637986  -0.761771305
  H   -1.959629486  -1.750069976   0.987774805
  H   -0.552484573   0.091388698   0.689140218
  H   -1.149261409   2.117943164  -0.319358253
  H   -2.743438237   1.468646557  -0.690877702
  H   -1.328997393   0.852093951  -1.551213321
  C   -2.167081056  -1.036714141   0.191076396
  N   -1.538664890   0.234629209   0.494599982
  C   -1.690296186   1.206434385  -0.570710455
  H    1.423102828  -0.840914939  -1.479762190
  H    3.074671975  -1.400156564  -1.185698849
  H    1.697505814  -2.213009342  -0.412710994
  H    2.621251634  -0.770727513   1.189871835
  H    2.748877651   1.566884514   1.007157615
  H    2.081792830   1.466120841  -0.619440470
  H    3.723107554   0.886243782  -0.312975460
  C    2.091682925  -1.245836894  -0.719328068
  N    2.123572401  -0.342108863   0.421972893
  C    2.710493800   0.953184795   0.108967158
