21
charge=0 charge_a=0 charge_b=0 selection_a=1-10 selection_b=11-21 scaling=1.05 benchmark_Eint=-3.930 benchmark_unit=kcal/mol group=NH-N
  H   -3.353803711   1.272267014  -1.167297224
  H   -1.585531593   1.257268080  -1.112775048
  H   -2.516079284   2.082630005   0.153474352
  H   -1.843472831  -0.000011582   0.989072448
  H   -2.516028140  -2.082651577   0.153428397
  H   -3.353771831  -1.272279939  -1.167325621
  H   -1.585500053  -1.257238957  -1.112802237
  C   -2.496662400   1.207471253  -0.494808021
  N   -2.590761027  -0.000013353   0.305553784
  C   -2.496632391  -1.207478014  -0.494834622
  H    2.394804954  -2.146595000  -0.708878786
  H    0.641215133  -2.052768006   1.042307294
  C    2.538499664   0.000004107  -0.849459941
  C    2.037658320  -1.193072162  -0.348505063
  C    1.056606563  -1.140358649   0.633119206
  N    0.569034961   0.000004678   1.122369528
  C    1.056591951   1.140367690   0.633103971
  C    2.037643036   1.193080630  -0.348520983
  H    0.641188857   2.052777155   1.042279863
  H    2.394777483   2.146603205  -0.708907450
  H    3.301294960   0.000003867  -1.615140087
