17
charge=0 charge_a=0 charge_b=0 selection_a=1-10 selection_b=11-17 scaling=2.0 benchmark_Eint=-0.495 benchmark_unit=kcal/mol group=NH-N
  H   -3.985684876  -0.270111115  -0.696348801
  H   -3.442578344   1.410010602  -0.772041873
  H   -2.900677312   0.236229575  -1.988128555
  H   -1.156462383   0.453983068  -0.429005446
  H   -1.273750301  -0.047957719   1.836196953
  H   -2.979938475  -0.462300819   1.664451711
  H   -2.470556049   1.226651035   1.544999678
  C   -3.131310358   0.366556497  -0.931850616
  N   -1.990025408  -0.031801325  -0.125731675
  C   -2.188372380   0.192553739   1.296330851
  H    3.840968557  -2.568947034  -0.605581312
  H    3.694011503  -2.463809514   1.165234914
  H    2.255949502  -2.260652069   0.138810529
  C    3.321563052  -2.074398891   0.216531687
  N    3.485613727  -0.610472300   0.142922078
  N    4.632772564  -0.190332847   0.225153149
  N    5.645299631   0.305585890   0.290534421
