20
charge=0 charge_a=0 charge_b=0 selection_a=1-10 selection_b=11-20 scaling=0.85 benchmark_Eint=-2.799 benchmark_unit=kcal/mol group=NH-N
  H   -3.250283383  -0.913303673   0.129661131
  H   -1.833395115  -1.480637986  -0.761771305
  H   -1.959629486  -1.750069976   0.987774805
  H   -0.552484573   0.091388698   0.689140218
  H   -1.149261409   2.117943164  -0.319358253
  H   -2.743438237   1.468646557  -0.690877702
  H   -1.328997393   0.852093951  -1.551213321
  C   -2.167081056  -1.036714141   0.191076396
  N   -1.538664890   0.234629209   0.494599982
  C   -1.690296186   1.206434385  -0.570710455
  H    0.566764596  -0.702195720  -1.394268646
  H    2.218333743  -1.261437345  -1.100205305
  H    0.841167582  -2.074290123  -0.327217450
  H    1.764913402  -0.632008294   1.275365379
  H    1.892539419   1.705603733   1.092651159
  H    1.225454598   1.604840060  -0.533946926
  H    2.866769322   1.024963001  -0.227481916
  C    1.235344693  -1.107117675  -0.633834524
  N    1.267234169  -0.203389644   0.507466437
  C    1.854155568   1.091904014   0.194460702
