20
charge=0 charge_a=0 charge_b=0 selection_a=1-10 selection_b=11-20 scaling=0.9 benchmark_Eint=-2.864 benchmark_unit=kcal/mol group=NH-N
  H   -2.563513201   1.555150543   1.174823687
  H   -1.262086062   0.452239289   1.639296856
  H   -0.900681679   1.938132759   0.740774948
  H   -0.901640814   0.170279652  -0.794662965
  H   -2.744521185  -1.167203038  -1.334561876
  H   -3.709186598  -0.327597723  -0.122796438
  H   -2.415824094  -1.414381040   0.392386715
  C   -1.617666090   1.124758755   0.841909782
  N   -1.801777554   0.468052537  -0.439142995
  C   -2.701623270  -0.668142705  -0.367643004
  H    1.047575116  -2.590160463  -0.475426740
  H    1.550810764  -1.947161450   1.122360691
  H   -0.171102919  -1.965376465   0.624144008
  H    1.670893177   2.280746588   0.336160823
  H    1.195000320   1.645255309  -1.271469212
  H    2.910852621   1.682847916  -0.753035202
  C    0.858144973  -1.836076541   0.288369763
  N    0.962095735  -0.522333039  -0.338734246
  N    1.789461150   0.217720270   0.191132380
  C    1.880241287   1.534767084  -0.430611558
