11
charge=0 charge_a=0 charge_b=0 selection_a=1-7 selection_b=8-11 scaling=0.95 benchmark_Eint=-3.098 benchmark_unit=kcal/mol group=NH-N
  N   -0.884101126  -0.681387473  -0.069541677
  H    0.088170033  -0.487710679   0.148735491
  H   -1.213579512  -1.368555024   0.594944779
  C   -1.679766174   0.540233720   0.016954691
  H   -2.716435461   0.325500967  -0.243685036
  H   -1.675988310   1.029804861   0.999590641
  H   -1.309070780   1.261636343  -0.711516426
  N    2.147458110   0.091271125   0.029059063
  H    2.228369103  -0.203344586  -0.936200084
  H    2.359959623   1.080271598   0.061812565
  H    2.867404075  -0.389460226   0.553273570
