20
charge=0 charge_a=0 charge_b=0 selection_a=1-10 selection_b=11-20 scaling=1.1 benchmark_Eint=-4.358 benchmark_unit=kcal/mol group=NH-N
  H   -3.250283383  -0.913303673   0.129661131
  H   -1.833395115  -1.480637986  -0.761771305
  H   -1.959629486  -1.750069976   0.987774805
  H   -0.552484573   0.091388698   0.689140218
  H   -1.149261409   2.117943164  -0.319358253
  H   -2.743438237   1.468646557  -0.690877702
  H   -1.328997393   0.852093951  -1.551213321
  C   -2.167081056  -1.036714141   0.191076396
  N   -1.538664890   0.234629209   0.494599982
  C   -1.690296186   1.206434385  -0.570710455
  H    1.101975991  -0.788895232  -1.447702111
  H    2.753545138  -1.348136857  -1.153638770
  H    1.376378977  -2.160989635  -0.380650915
  H    2.300124797  -0.718707806   1.221931914
  H    2.427750814   1.618904221   1.039217694
  H    1.760665993   1.518140548  -0.587380391
  H    3.401980717   0.938263489  -0.280915381
  C    1.770556088  -1.193817187  -0.687267989
  N    1.802445564  -0.290089156   0.454032972
  C    2.389366963   1.005204502   0.141027237
