17
charge=0 charge_a=0 charge_b=0 selection_a=1-7 selection_b=8-17 scaling=1.5 benchmark_Eint=-1.711 benchmark_unit=kcal/mol group=NH-N
  N   -1.875749101  -0.527593336  -0.507110752
  H   -0.899209159  -0.392815787  -0.754977708
  H   -2.424055453  -0.415062006  -1.348985884
  C   -2.280043739   0.444347452   0.504445077
  H   -3.328104703   0.294754510   0.764568226
  H   -2.153750340   1.496594190   0.217066259
  H   -1.699713716   0.280090518   1.412986256
  H    1.816090292   1.636954888   0.887137392
  H    3.556474596   1.551151046   0.589720580
  H    2.454644848   2.125058030  -0.679223486
  H    2.952611528  -0.117334244  -1.161221308
  H    2.431078030  -1.953920728   0.198558224
  H    1.790154871  -0.864053776   1.418356178
  H    3.535535445  -0.917277974   1.129229570
  C    2.567714911   1.407224604   0.131505024
  N    2.349125054   0.057890672  -0.369815860
  C    2.550604790  -0.968492022   0.644293328
