24
charge=0 charge_a=0 charge_b=0 selection_a=1-10 selection_b=11-24 scaling=1.25 benchmark_Eint=-4.107 benchmark_unit=kcal/mol group=NH-N
  H   -3.781713200   0.499789709   1.294531387
  H   -3.109056295  -1.134189570   1.254762795
  H   -2.237958484   0.172541951   2.079712003
  H   -1.211748947  -0.083925505   0.000000000
  H   -2.237958484   0.172541951  -2.079712003
  H   -3.781713200   0.499789709  -1.294531387
  H   -3.109056295  -1.134189570  -1.254762795
  C   -2.849822159  -0.063582297   1.209724225
  N   -2.146403305   0.315667599   0.000000000
  C   -2.849822159  -0.063582297  -1.209724225
  H    4.011131722  -0.442666033   0.875913925
  H    4.185022193   1.082089756   0.000000000
  H    4.011131722  -0.442666033  -0.875913925
  H    2.012526118   2.218074654  -0.875313292
  H    2.489427518  -2.266268316   0.881909736
  H    2.489427518  -2.266268316  -0.881909736
  H    1.040647832  -2.754973367   0.000000000
  H    2.012526118   2.218074654   0.875313292
  H    0.558489220   1.683293651   0.000000000
  C    2.179245918   0.274866961   0.000000000
  N    1.364054992  -0.699474845   0.000000000
  C    1.876030315  -2.059227942   0.000000000
  C    1.644808204   1.677353490   0.000000000
  C    3.682046849   0.118846163   0.000000000
