17
charge=0 charge_a=0 charge_b=0 selection_a=1-10 selection_b=11-17 scaling=0.95 benchmark_Eint=-4.010 benchmark_unit=kcal/mol group=NH-N
  H   -3.985684876  -0.270111115  -0.696348801
  H   -3.442578344   1.410010602  -0.772041873
  H   -2.900677312   0.236229575  -1.988128555
  H   -1.156462383   0.453983068  -0.429005446
  H   -1.273750301  -0.047957719   1.836196953
  H   -2.979938475  -0.462300819   1.664451711
  H   -2.470556049   1.226651035   1.544999678
  C   -3.131310358   0.366556497  -0.931850616
  N   -1.990025408  -0.031801325  -0.125731675
  C   -2.188372380   0.192553739   1.296330851
  H    1.403878599  -2.010107966  -0.905843262
  H    1.256921545  -1.904970446   0.864972964
  H   -0.181140456  -1.701813001  -0.161451421
  C    0.884473094  -1.515559823  -0.083730263
  N    1.048523769  -0.051633232  -0.157339872
  N    2.195682606   0.368506221  -0.075108801
  N    3.208209673   0.864424958  -0.009727529
