23
charge=0 charge_a=0 charge_b=0 selection_a=1-10 selection_b=11-23 scaling=2.0 benchmark_Eint=-0.662 benchmark_unit=kcal/mol group=NH-N
  H    3.324946752   1.321814958   0.019734746
  H    2.032048822   1.226305196  -1.180803076
  H    1.767360146   2.070425821   0.358536725
  H    0.785471271  -0.041691923   0.554950738
  H    1.907769512  -2.089143503   0.428780634
  H    3.412727945  -1.249253617   0.066570360
  H    2.119383040  -1.281306009  -1.137614097
  C    2.245821590   1.204989119  -0.098678281
  N    1.800839776  -0.007811466   0.560405562
  C    2.328605459  -1.209523646  -0.057092692
  H   -4.907217774   1.504777369  -0.561802792
  H   -3.233100397   2.085990350  -0.648973636
  H   -3.885289606   1.517062130   0.889458916
  H   -4.180456822  -0.835217760   1.268935070
  H   -5.224902339  -1.027504425  -0.153248155
  H   -3.744895769  -1.992552238   0.009452042
  H   -4.264070802  -0.187873679  -2.405662960
  H   -2.855171487  -1.216085995  -2.076813674
  C   -3.883722842   1.345473836  -0.185877916
  N   -3.387576517   0.009771291  -0.469882208
  C   -4.179260586  -1.011090425   0.194319311
  C   -3.286683437  -0.232155131  -1.899207002
  H   -2.633815036   0.511912992  -2.353233910
