20
charge=0 charge_a=0 charge_b=0 selection_a=1-10 selection_b=11-20 scaling=1.05 benchmark_Eint=-4.592 benchmark_unit=kcal/mol group=NH-N
  H   -3.250283383  -0.913303673   0.129661131
  H   -1.833395115  -1.480637986  -0.761771305
  H   -1.959629486  -1.750069976   0.987774805
  H   -0.552484573   0.091388698   0.689140218
  H   -1.149261409   2.117943164  -0.319358253
  H   -2.743438237   1.468646557  -0.690877702
  H   -1.328997393   0.852093951  -1.551213321
  C   -2.167081056  -1.036714141   0.191076396
  N   -1.538664890   0.234629209   0.494599982
  C   -1.690296186   1.206434385  -0.570710455
  H    0.994933712  -0.771555329  -1.437015418
  H    2.646502859  -1.330796954  -1.142952077
  H    1.269336698  -2.143649732  -0.369964222
  H    2.193082518  -0.701367903   1.232618607
  H    2.320708535   1.636244124   1.049904387
  H    1.653623714   1.535480451  -0.576693698
  H    3.294938438   0.955603392  -0.270228688
  C    1.663513809  -1.176477284  -0.676581296
  N    1.695403285  -0.272749253   0.464719665
  C    2.282324684   1.022544405   0.151713930
