17
charge=0 charge_a=0 charge_b=0 selection_a=1-10 selection_b=11-17 scaling=0.8 benchmark_Eint=-0.435 benchmark_unit=kcal/mol group=NH-N
  H   -3.985684876  -0.270111115  -0.696348801
  H   -3.442578344   1.410010602  -0.772041873
  H   -2.900677312   0.236229575  -1.988128555
  H   -1.156462383   0.453983068  -0.429005446
  H   -1.273750301  -0.047957719   1.836196953
  H   -2.979938475  -0.462300819   1.664451711
  H   -2.470556049   1.226651035   1.544999678
  C   -3.131310358   0.366556497  -0.931850616
  N   -1.990025408  -0.031801325  -0.125731675
  C   -2.188372380   0.192553739   1.296330851
  H    1.055722891  -1.930273813  -0.948737826
  H    0.908765837  -1.825136293   0.822078400
  H   -0.529296164  -1.621978848  -0.204345985
  C    0.536317386  -1.435725670  -0.126624827
  N    0.700368061   0.028200921  -0.200234436
  N    1.847526898   0.448340374  -0.118003365
  N    2.860053965   0.944259111  -0.052622093
