17
charge=0 charge_a=0 charge_b=0 selection_a=1-7 selection_b=8-17 scaling=0.95 benchmark_Eint=-3.628 benchmark_unit=kcal/mol group=NH-N
  N   -2.215224378  -0.298360416  -0.514556461
  H   -1.330415481  -0.254940679  -1.005862023
  H   -2.947226756  -0.116073706  -1.187460994
  C   -2.243963812   0.684797155   0.566405837
  H   -3.189149747   0.609559802   1.103168998
  H   -2.119627517   1.727213581   0.247710700
  H   -1.449834676   0.459352366   1.277381527
  H    1.153398106  -2.541743552  -0.529662436
  H    1.258916825  -1.906809659   1.145065054
  H   -0.324325073  -2.106857305   0.318008507
  H    0.956366664   2.330402052   0.456411520
  H    0.905348203   1.702030083  -1.221819794
  H    2.461229044   1.950528610  -0.365523541
  C    0.727576663  -1.847935415   0.195275466
  N    0.782373245  -0.507832389  -0.379820390
  N    1.388669937   0.309207792   0.311094063
  C    1.418319442   1.651607018  -0.260728465
