23
charge=0 charge_a=0 charge_b=0 selection_a=1-10 selection_b=11-23 scaling=1.5 benchmark_Eint=-2.001 benchmark_unit=kcal/mol group=NH-N
  H    3.324946752   1.321814958   0.019734746
  H    2.032048822   1.226305196  -1.180803076
  H    1.767360146   2.070425821   0.358536725
  H    0.785471271  -0.041691923   0.554950738
  H    1.907769512  -2.089143503   0.428780634
  H    3.412727945  -1.249253617   0.066570360
  H    2.119383040  -1.281306009  -1.137614097
  C    2.245821590   1.204989119  -0.098678281
  N    1.800839776  -0.007811466   0.560405562
  C    2.328605459  -1.209523646  -0.057092692
  H   -3.863955827   1.491911566  -0.305594556
  H   -2.189838450   2.073124546  -0.392765400
  H   -2.842027659   1.504196326   1.145667152
  H   -3.137194875  -0.848083564   1.525143306
  H   -4.181640392  -1.040370228   0.102960082
  H   -2.701633822  -2.005418042   0.265660278
  H   -3.220808855  -0.200739482  -2.149454724
  H   -1.811909540  -1.228951798  -1.820605438
  C   -2.840460895   1.332608032   0.070330320
  N   -2.344314570  -0.003094512  -0.213673972
  C   -3.135998639  -1.023956228   0.450527548
  C   -2.243421490  -0.245020934  -1.642998766
  H   -1.590553089   0.499047188  -2.097025674
