17
charge=0 charge_a=0 charge_b=0 selection_a=1-7 selection_b=8-17 scaling=1.05 benchmark_Eint=-4.243 benchmark_unit=kcal/mol group=NH-N
  N   -1.875749101  -0.527593336  -0.507110752
  H   -0.899209159  -0.392815787  -0.754977708
  H   -2.424055453  -0.415062006  -1.348985884
  C   -2.280043739   0.444347452   0.504445077
  H   -3.328104703   0.294754510   0.764568226
  H   -2.153750340   1.496594190   0.217066259
  H   -1.699713716   0.280090518   1.412986256
  H    0.841590028   1.501742950   0.771588837
  H    2.581974332   1.415939109   0.474172025
  H    1.480144584   1.989846092  -0.794772040
  H    1.978111264  -0.252546181  -1.276769863
  H    1.456577766  -2.089132666   0.083009670
  H    0.815654607  -0.999265713   1.302807624
  H    2.561035181  -1.052489911   1.013681015
  C    1.593214647   1.272012666   0.015956469
  N    1.374624790  -0.077321265  -0.485364415
  C    1.576104526  -1.103703960   0.528744773
