20
charge=0 charge_a=0 charge_b=0 selection_a=1-10 selection_b=11-20 scaling=2.0 benchmark_Eint=-0.446 benchmark_unit=kcal/mol group=NH-N
  H   -2.563513201   1.555150543   1.174823687
  H   -1.262086062   0.452239289   1.639296856
  H   -0.900681679   1.938132759   0.740774948
  H   -0.901640814   0.170279652  -0.794662965
  H   -2.744521185  -1.167203038  -1.334561876
  H   -3.709186598  -0.327597723  -0.122796438
  H   -2.415824094  -1.414381040   0.392386715
  C   -1.617666090   1.124758755   0.841909782
  N   -1.801777554   0.468052537  -0.439142995
  C   -2.701623270  -0.668142705  -0.367643004
  H    3.325475343  -3.436687086   0.081819473
  H    3.828710991  -2.793688073   1.679606904
  H    2.106797308  -2.811903088   1.181390221
  H    3.948793404   1.434219965   0.893407036
  H    3.472900547   0.798728686  -0.714222999
  H    5.188752848   0.836321293  -0.195788989
  C    3.136045200  -2.682603164   0.845615976
  N    3.239995962  -1.368859662   0.218511967
  N    4.067361377  -0.628806353   0.748378593
  C    4.158141514   0.688240461   0.126634655
