23
charge=0 charge_a=0 charge_b=0 selection_a=1-10 selection_b=11-23 scaling=0.95 benchmark_Eint=-4.614 benchmark_unit=kcal/mol group=NH-N
  H    3.324946752   1.321814958   0.019734746
  H    2.032048822   1.226305196  -1.180803076
  H    1.767360146   2.070425821   0.358536725
  H    0.785471271  -0.041691923   0.554950738
  H    1.907769512  -2.089143503   0.428780634
  H    3.412727945  -1.249253617   0.066570360
  H    2.119383040  -1.281306009  -1.137614097
  C    2.245821590   1.204989119  -0.098678281
  N    1.800839776  -0.007811466   0.560405562
  C    2.328605459  -1.209523646  -0.057092692
  H   -2.716367685   1.477759182  -0.023765495
  H   -1.042250308   2.058972163  -0.110936339
  H   -1.694439517   1.490043943   1.427496213
  H   -1.989606733  -0.862235947   1.806972367
  H   -3.034052250  -1.054522612   0.384789142
  H   -1.554045680  -2.019570425   0.547489339
  H   -2.073220713  -0.214891866  -1.867625663
  H   -0.664321398  -1.243104182  -1.538776377
  C   -1.692872753   1.318455649   0.352159381
  N   -1.196726428  -0.017246896   0.068155089
  C   -1.988410497  -1.038108612   0.732356608
  C   -1.095833348  -0.259173318  -1.361169705
  H   -0.442964947   0.484894805  -1.815196613
