20
charge=0 charge_a=0 charge_b=0 selection_a=1-10 selection_b=11-20 scaling=2.0 benchmark_Eint=-0.629 benchmark_unit=kcal/mol group=NH-N
  H   -3.250283383  -0.913303673   0.129661131
  H   -1.833395115  -1.480637986  -0.761771305
  H   -1.959629486  -1.750069976   0.987774805
  H   -0.552484573   0.091388698   0.689140218
  H   -1.149261409   2.117943164  -0.319358253
  H   -2.743438237   1.468646557  -0.690877702
  H   -1.328997393   0.852093951  -1.551213321
  C   -2.167081056  -1.036714141   0.191076396
  N   -1.538664890   0.234629209   0.494599982
  C   -1.690296186   1.206434385  -0.570710455
  H    3.028737012  -1.101013476  -1.640062585
  H    4.680306159  -1.660255101  -1.345999244
  H    3.303139998  -2.473107879  -0.573011389
  H    4.226885818  -1.030826050   1.029571440
  H    4.354511835   1.306785977   0.846857220
  H    3.687427014   1.206022304  -0.779740865
  H    5.328741738   0.626145245  -0.473275855
  C    3.697317109  -1.505935431  -0.879628463
  N    3.729206585  -0.602207400   0.261672498
  C    4.316127984   0.693086258  -0.051333237
