13
charge=0 charge_a=0 charge_b=0 selection_a=1-7 selection_b=8-13 scaling=2.0 benchmark_Eint=-0.364 benchmark_unit=kcal/mol group=NH-N
  N    2.264148055  -0.428237459  -0.124151649
  H    1.481586218  -1.069931740  -0.149833010
  H    2.852920550  -0.711089118   0.647497866
  C    1.789924404   0.938056608   0.063637384
  H    2.640829402   1.616340136   0.123582257
  H    1.171569577   1.096455008   0.957797370
  H    1.203728008   1.236697234  -0.806148643
  H   -5.158995337   0.792485990   1.030997901
  H   -3.788666526   1.490489599   0.152711013
  H   -5.126512288   0.747007618  -0.738805673
  C   -4.516069639   0.680880838   0.159879893
  C   -3.828390508  -0.598221688   0.205170003
  N   -3.276649664  -1.604537804   0.239579074
