13
charge=0 charge_a=0 charge_b=0 selection_a=1-7 selection_b=8-13 scaling=1.1 benchmark_Eint=-2.556 benchmark_unit=kcal/mol group=NH-N
  N    2.264148055  -0.428237459  -0.124151649
  H    1.481586218  -1.069931740  -0.149833010
  H    2.852920550  -0.711089118   0.647497866
  C    1.789924404   0.938056608   0.063637384
  H    2.640829402   1.616340136   0.123582257
  H    1.171569577   1.096455008   0.957797370
  H    1.203728008   1.236697234  -0.806148643
  H   -3.017789190   1.033058719   0.855762463
  H   -1.647460379   1.731062328  -0.022524425
  H   -2.985306141   0.987580347  -0.914041111
  C   -2.374863492   0.921453567  -0.015355545
  C   -1.687184361  -0.357648959   0.029934565
  N   -1.135443517  -1.363965075   0.064343636
