23
charge=0 charge_a=0 charge_b=0 selection_a=1-10 selection_b=11-23 scaling=1.0 benchmark_Eint=-4.799 benchmark_unit=kcal/mol group=NH-N
  H    3.324946752   1.321814958   0.019734746
  H    2.032048822   1.226305196  -1.180803076
  H    1.767360146   2.070425821   0.358536725
  H    0.785471271  -0.041691923   0.554950738
  H    1.907769512  -2.089143503   0.428780634
  H    3.412727945  -1.249253617   0.066570360
  H    2.119383040  -1.281306009  -1.137614097
  C    2.245821590   1.204989119  -0.098678281
  N    1.800839776  -0.007811466   0.560405562
  C    2.328605459  -1.209523646  -0.057092692
  H   -2.820693880   1.479045762  -0.049386319
  H   -1.146576503   2.060258743  -0.136557163
  H   -1.798765712   1.491330523   1.401875389
  H   -2.093932928  -0.860949367   1.781351543
  H   -3.138378445  -1.053236032   0.359168318
  H   -1.658371875  -2.018283845   0.521868515
  H   -2.177546908  -0.213605286  -1.893246487
  H   -0.768647593  -1.241817602  -1.564397201
  C   -1.797198948   1.319742229   0.326538557
  N   -1.301052623  -0.015960316   0.042534265
  C   -2.092736692  -1.036822032   0.706735784
  C   -1.200159543  -0.257886738  -1.386790529
  H   -0.547291142   0.486181385  -1.840817437
