20
charge=0 charge_a=0 charge_b=0 selection_a=1-10 selection_b=11-20 scaling=0.95 benchmark_Eint=-3.372 benchmark_unit=kcal/mol group=NH-N
  H   -2.563513201   1.555150543   1.174823687
  H   -1.262086062   0.452239289   1.639296856
  H   -0.900681679   1.938132759   0.740774948
  H   -0.901640814   0.170279652  -0.794662965
  H   -2.744521185  -1.167203038  -1.334561876
  H   -3.709186598  -0.327597723  -0.122796438
  H   -2.415824094  -1.414381040   0.392386715
  C   -1.617666090   1.124758755   0.841909782
  N   -1.801777554   0.468052537  -0.439142995
  C   -2.701623270  -0.668142705  -0.367643004
  H    1.151116036  -2.628638946  -0.450097366
  H    1.654351684  -1.985639933   1.147690065
  H   -0.067561999  -2.003854948   0.649473382
  H    1.774434097   2.242268105   0.361490197
  H    1.298541240   1.606776826  -1.246139838
  H    3.014393541   1.644369433  -0.727705828
  C    0.961685893  -1.874555024   0.313699137
  N    1.065636655  -0.560811522  -0.313404872
  N    1.893002070   0.179241787   0.216461754
  C    1.983782207   1.496288601  -0.405282184
