17
charge=0 charge_a=0 charge_b=0 selection_a=1-10 selection_b=11-17 scaling=1.25 benchmark_Eint=-2.760 benchmark_unit=kcal/mol group=NH-N
  H   -3.985684876  -0.270111115  -0.696348801
  H   -3.442578344   1.410010602  -0.772041873
  H   -2.900677312   0.236229575  -1.988128555
  H   -1.156462383   0.453983068  -0.429005446
  H   -1.273750301  -0.047957719   1.836196953
  H   -2.979938475  -0.462300819   1.664451711
  H   -2.470556049   1.226651035   1.544999678
  C   -3.131310358   0.366556497  -0.931850616
  N   -1.990025408  -0.031801325  -0.125731675
  C   -2.188372380   0.192553739   1.296330851
  H    2.100190016  -2.169776271  -0.820054134
  H    1.953232962  -2.064638751   0.950762092
  H    0.515170961  -1.861481306  -0.075662292
  C    1.580784511  -1.675228128   0.002058866
  N    1.744835186  -0.211301537  -0.071550744
  N    2.891994023   0.208837916   0.010680328
  N    3.904521090   0.704756653   0.076061600
