13
charge=0 charge_a=0 charge_b=0 selection_a=1-7 selection_b=8-13 scaling=1.0 benchmark_Eint=-2.801 benchmark_unit=kcal/mol group=NH-N
  N    2.264148055  -0.428237459  -0.124151649
  H    1.481586218  -1.069931740  -0.149833010
  H    2.852920550  -0.711089118   0.647497866
  C    1.789924404   0.938056608   0.063637384
  H    2.640829402   1.616340136   0.123582257
  H    1.171569577   1.096455008   0.957797370
  H    1.203728008   1.236697234  -0.806148643
  H   -2.779877396   1.059789022   0.836291859
  H   -1.409548585   1.757792631  -0.041995029
  H   -2.747394347   1.014310650  -0.933511715
  C   -2.136951698   0.948183870  -0.034826149
  C   -1.449272567  -0.330918656   0.010463961
  N   -0.897531723  -1.337234772   0.044873032
