17
charge=0 charge_a=0 charge_b=0 selection_a=1-10 selection_b=11-17 scaling=1.1 benchmark_Eint=-3.725 benchmark_unit=kcal/mol group=NH-N
  H   -3.985684876  -0.270111115  -0.696348801
  H   -3.442578344   1.410010602  -0.772041873
  H   -2.900677312   0.236229575  -1.988128555
  H   -1.156462383   0.453983068  -0.429005446
  H   -1.273750301  -0.047957719   1.836196953
  H   -2.979938475  -0.462300819   1.664451711
  H   -2.470556049   1.226651035   1.544999678
  C   -3.131310358   0.366556497  -0.931850616
  N   -1.990025408  -0.031801325  -0.125731675
  C   -2.188372380   0.192553739   1.296330851
  H    1.752034308  -2.089942118  -0.862948698
  H    1.605077254  -1.984804598   0.907867528
  H    0.167015252  -1.781647153  -0.118556857
  C    1.232628802  -1.595393975  -0.040835699
  N    1.396679478  -0.131467384  -0.114445308
  N    2.543838314   0.288672069  -0.032214237
  N    3.556365382   0.784590806   0.033167035
