20
charge=0 charge_a=0 charge_b=0 selection_a=1-10 selection_b=11-20 scaling=0.9 benchmark_Eint=-3.967 benchmark_unit=kcal/mol group=NH-N
  H   -3.250283383  -0.913303673   0.129661131
  H   -1.833395115  -1.480637986  -0.761771305
  H   -1.959629486  -1.750069976   0.987774805
  H   -0.552484573   0.091388698   0.689140218
  H   -1.149261409   2.117943164  -0.319358253
  H   -2.743438237   1.468646557  -0.690877702
  H   -1.328997393   0.852093951  -1.551213321
  C   -2.167081056  -1.036714141   0.191076396
  N   -1.538664890   0.234629209   0.494599982
  C   -1.690296186   1.206434385  -0.570710455
  H    0.673806875  -0.719535622  -1.404955339
  H    2.325376022  -1.278777247  -1.110891998
  H    0.948209861  -2.091630025  -0.337904143
  H    1.871955681  -0.649348196   1.264678686
  H    1.999581698   1.688263831   1.081964466
  H    1.332496877   1.587500158  -0.544633619
  H    2.973811601   1.007623099  -0.238168609
  C    1.342386972  -1.124457577  -0.644521217
  N    1.374276448  -0.220729546   0.496779744
  C    1.961197847   1.074564112   0.183774009
