24
charge=0 charge_a=0 charge_b=0 selection_a=1-10 selection_b=11-24 scaling=0.95 benchmark_Eint=-5.154 benchmark_unit=kcal/mol group=NH-N
  H   -3.781713200   0.499789709   1.294531387
  H   -3.109056295  -1.134189570   1.254762795
  H   -2.237958484   0.172541951   2.079712003
  H   -1.211748947  -0.083925505   0.000000000
  H   -2.237958484   0.172541951  -2.079712003
  H   -3.781713200   0.499789709  -1.294531387
  H   -3.109056295  -1.134189570  -1.254762795
  C   -2.849822159  -0.063582297   1.209724225
  N   -2.146403305   0.315667599   0.000000000
  C   -2.849822159  -0.063582297  -1.209724225
  H    3.392938776  -0.294934191   0.875913925
  H    3.566829247   1.229821598   0.000000000
  H    3.392938776  -0.294934191  -0.875913925
  H    1.394333172   2.365806496  -0.875313292
  H    1.871234572  -2.118536474   0.881909736
  H    1.871234572  -2.118536474  -0.881909736
  H    0.422454886  -2.607241525   0.000000000
  H    1.394333172   2.365806496   0.875313292
  H   -0.059703726   1.831025493   0.000000000
  C    1.561052972   0.422598803   0.000000000
  N    0.745862046  -0.551743003   0.000000000
  C    1.257837369  -1.911496100   0.000000000
  C    1.026615258   1.825085332   0.000000000
  C    3.063853903   0.266578005   0.000000000
