13
charge=0 charge_a=0 charge_b=0 selection_a=1-7 selection_b=8-13 scaling=1.05 benchmark_Eint=-2.726 benchmark_unit=kcal/mol group=NH-N
  N    2.264148055  -0.428237459  -0.124151649
  H    1.481586218  -1.069931740  -0.149833010
  H    2.852920550  -0.711089118   0.647497866
  C    1.789924404   0.938056608   0.063637384
  H    2.640829402   1.616340136   0.123582257
  H    1.171569577   1.096455008   0.957797370
  H    1.203728008   1.236697234  -0.806148643
  H   -2.898833293   1.046423870   0.846027161
  H   -1.528504482   1.744427479  -0.032259727
  H   -2.866350244   1.000945498  -0.923776413
  C   -2.255907595   0.934818718  -0.025090847
  C   -1.568228464  -0.344283808   0.020199263
  N   -1.016487620  -1.350599924   0.054608334
