17
charge=0 charge_a=0 charge_b=0 selection_a=1-7 selection_b=8-17 scaling=0.8 benchmark_Eint=-0.651 benchmark_unit=kcal/mol group=NH-N
  N   -1.875749101  -0.527593336  -0.507110752
  H   -0.899209159  -0.392815787  -0.754977708
  H   -2.424055453  -0.415062006  -1.348985884
  C   -2.280043739   0.444347452   0.504445077
  H   -3.328104703   0.294754510   0.764568226
  H   -2.153750340   1.496594190   0.217066259
  H   -1.699713716   0.280090518   1.412986256
  H    0.300200993   1.426625206   0.707395196
  H    2.040585297   1.340821365   0.409978384
  H    0.938755549   1.914728348  -0.858965681
  H    1.436722229  -0.327663925  -1.340963504
  H    0.915188731  -2.164250410   0.018816029
  H    0.274265572  -1.074383457   1.238613983
  H    2.019646146  -1.127607655   0.949487374
  C    1.051825612   1.196894922  -0.048237172
  N    0.833235755  -0.152439009  -0.549558056
  C    1.034715491  -1.178821704   0.464551132
