20
charge=0 charge_a=0 charge_b=0 selection_a=1-10 selection_b=11-20 scaling=0.85 benchmark_Eint=-1.842 benchmark_unit=kcal/mol group=NH-N
  H   -2.563513201   1.555150543   1.174823687
  H   -1.262086062   0.452239289   1.639296856
  H   -0.900681679   1.938132759   0.740774948
  H   -0.901640814   0.170279652  -0.794662965
  H   -2.744521185  -1.167203038  -1.334561876
  H   -3.709186598  -0.327597723  -0.122796438
  H   -2.415824094  -1.414381040   0.392386715
  C   -1.617666090   1.124758755   0.841909782
  N   -1.801777554   0.468052537  -0.439142995
  C   -2.701623270  -0.668142705  -0.367643004
  H    0.944034197  -2.551681980  -0.500756113
  H    1.447269845  -1.908682967   1.097031318
  H   -0.274643838  -1.926897982   0.598814635
  H    1.567352258   2.319225071   0.310831450
  H    1.091459401   1.683733792  -1.296798585
  H    2.807311702   1.721326399  -0.778364575
  C    0.754604054  -1.797598058   0.263040390
  N    0.858554816  -0.483854556  -0.364063619
  N    1.685920231   0.256198753   0.165803007
  C    1.776700368   1.573245567  -0.455940931
