17
charge=0 charge_a=0 charge_b=0 selection_a=1-10 selection_b=11-17 scaling=1.05 benchmark_Eint=-3.977 benchmark_unit=kcal/mol group=NH-N
  H   -3.985684876  -0.270111115  -0.696348801
  H   -3.442578344   1.410010602  -0.772041873
  H   -2.900677312   0.236229575  -1.988128555
  H   -1.156462383   0.453983068  -0.429005446
  H   -1.273750301  -0.047957719   1.836196953
  H   -2.979938475  -0.462300819   1.664451711
  H   -2.470556049   1.226651035   1.544999678
  C   -3.131310358   0.366556497  -0.931850616
  N   -1.990025408  -0.031801325  -0.125731675
  C   -2.188372380   0.192553739   1.296330851
  H    1.635982405  -2.063330734  -0.877246886
  H    1.489025351  -1.958193214   0.893569340
  H    0.050963350  -1.755035769  -0.132855045
  C    1.116576900  -1.568782591  -0.055133887
  N    1.280627575  -0.104856000  -0.128743496
  N    2.427786412   0.315283453  -0.046512425
  N    3.440313479   0.811202190   0.018868847
