13
charge=0 charge_a=0 charge_b=0 selection_a=1-7 selection_b=8-13 scaling=1.5 benchmark_Eint=-1.043 benchmark_unit=kcal/mol group=NH-N
  N    2.264148055  -0.428237459  -0.124151649
  H    1.481586218  -1.069931740  -0.149833010
  H    2.852920550  -0.711089118   0.647497866
  C    1.789924404   0.938056608   0.063637384
  H    2.640829402   1.616340136   0.123582257
  H    1.171569577   1.096455008   0.957797370
  H    1.203728008   1.236697234  -0.806148643
  H   -3.969436366   0.926137506   0.933644880
  H   -2.599107556   1.624141115   0.055357992
  H   -3.936953318   0.880659134  -0.836158694
  C   -3.326510668   0.814532354   0.062526872
  C   -2.638831538  -0.464570172   0.107816982
  N   -2.087090694  -1.470886288   0.142226053
