21
charge=0 charge_a=0 charge_b=0 selection_a=1-10 selection_b=11-21 scaling=0.85 benchmark_Eint=-2.135 benchmark_unit=kcal/mol group=NH-N
  H   -3.353803711   1.272267014  -1.167297224
  H   -1.585531593   1.257268080  -1.112775048
  H   -2.516079284   2.082630005   0.153474352
  H   -1.843472831  -0.000011582   0.989072448
  H   -2.516028140  -2.082651577   0.153428397
  H   -3.353771831  -1.272279939  -1.167325621
  H   -1.585500053  -1.257238957  -1.112802237
  C   -2.496662400   1.207471253  -0.494808021
  N   -2.590761027  -0.000013353   0.305553784
  C   -2.496632391  -1.207478014  -0.494834622
  H    1.935279661  -2.146598097  -0.734268706
  H    0.181689840  -2.052771103   1.016917374
  C    2.078974371   0.000001010  -0.874849861
  C    1.578133027  -1.193075259  -0.373894983
  C    0.597081270  -1.140361746   0.607729286
  N    0.109509668   0.000001581   1.096979608
  C    0.597066658   1.140364593   0.607714051
  C    1.578117743   1.193077533  -0.373910903
  H    0.181663564   2.052774058   1.016889943
  H    1.935252190   2.146600108  -0.734297370
  H    2.841769667   0.000000770  -1.640530007
