26
charge=0 charge_a=0 charge_b=0 selection_a=1-12 selection_b=13-26 scaling=1.1 benchmark_Eint=-6.649 benchmark_unit=kcal/mol group=NH-N
  C   -3.461604396  -1.276640626   0.000000000
  H   -4.085405742  -1.436606373  -0.877682719
  H   -2.647973705  -1.999649389   0.000000000
  H   -4.085405742  -1.436606373   0.877682719
  C   -2.982023160   0.162273590   0.000000000
  O   -3.763788140   1.100466744   0.000000000
  N   -1.639018061   0.330560810   0.000000000
  H   -1.042640436  -0.481448654   0.000000000
  C   -1.044274073   1.652945702   0.000000000
  H   -1.353317942   2.217436334  -0.879430904
  H    0.036281592   1.551261780   0.000000000
  H   -1.353317942   2.217436334   0.879430904
  H    1.685134734  -1.071304288   2.140624196
  H    4.018985121   1.813258386   0.000000000
  H    3.236951269   0.836379686   2.138755398
  H    1.685134734  -1.071304288  -2.140624196
  H    0.624885379  -2.803188837   0.830726646
  H    3.236951269   0.836379686  -2.138755398
  H    0.624885379  -2.803188837  -0.830726646
  C    3.344124344   0.970415965   0.000000000
  C    2.904402176   0.420565459   1.198266303
  C    2.033970469  -0.659265676   1.203016469
  C    1.588838023  -1.209014001   0.000000000
  C    2.033970469  -0.659265676  -1.203016469
  C    2.904402176   0.420565459  -1.198266303
  N    0.627523888  -2.232574217   0.000000000
