18
charge=0 charge_a=0 charge_b=0 selection_a=1-12 selection_b=13-18 scaling=2.0 benchmark_Eint=-1.579 benchmark_unit=kcal/mol group=NH-N
  C    1.270446450  -1.825473998  -0.000004449
  H    0.184827044  -1.755080581   0.000003604
  H    1.596408150  -2.380872507   0.877802432
  H    1.596394525  -2.380856191  -0.877826473
  C    1.956340954  -0.473411105  -0.000006424
  O    3.174048286  -0.368586549   0.000003841
  N    1.133312459   0.600118914   0.000015216
  H    0.134893522   0.465537871   0.000014413
  C    1.660650792   1.948550393  -0.000009211
  H    2.279049160   2.128192014  -0.879465811
  H    0.828307718   2.647605262  -0.000028134
  H    2.279046336   2.128233325   0.879440776
  H   -6.854597182  -1.488657629   0.000018982
  H   -7.098035390   0.025610594  -0.885718421
  H   -7.098048048   0.025663695   0.885659434
  C   -6.648944775  -0.419848689  -0.000013038
  C   -5.214795643  -0.189679943  -0.000008569
  N   -4.082195066  -0.008241715  -0.000004649
