26
charge=0 charge_a=0 charge_b=0 selection_a=1-12 selection_b=13-26 scaling=0.8 benchmark_Eint=-2.654 benchmark_unit=kcal/mol group=NH-N
  C   -3.461604396  -1.276640626   0.000000000
  H   -4.085405742  -1.436606373  -0.877682719
  H   -2.647973705  -1.999649389   0.000000000
  H   -4.085405742  -1.436606373   0.877682719
  C   -2.982023160   0.162273590   0.000000000
  O   -3.763788140   1.100466744   0.000000000
  N   -1.639018061   0.330560810   0.000000000
  H   -1.042640436  -0.481448654   0.000000000
  C   -1.044274073   1.652945702   0.000000000
  H   -1.353317942   2.217436334  -0.879430904
  H    0.036281592   1.551261780   0.000000000
  H   -1.353317942   2.217436334   0.879430904
  H    1.229635373  -0.593724589   2.140624196
  H    3.563485760   2.290838085   0.000000000
  H    2.781451908   1.313959385   2.138755398
  H    1.229635373  -0.593724589  -2.140624196
  H    0.169386018  -2.325609138   0.830726646
  H    2.781451908   1.313959385  -2.138755398
  H    0.169386018  -2.325609138  -0.830726646
  C    2.888624983   1.447995664   0.000000000
  C    2.448902815   0.898145158   1.198266303
  C    1.578471108  -0.181685977   1.203016469
  C    1.133338662  -0.731434302   0.000000000
  C    1.578471108  -0.181685977  -1.203016469
  C    2.448902815   0.898145158  -1.198266303
  N    0.172024527  -1.754994518   0.000000000
