22
charge=0 charge_a=0 charge_b=0 selection_a=1-12 selection_b=13-22 scaling=0.9 benchmark_Eint=-5.328 benchmark_unit=kcal/mol group=NH-N
  C    1.276026524  -1.519077241  -0.975360374
  H    0.198689074  -1.391723657  -1.059570174
  H    1.488171405  -2.447306885  -0.447328988
  H    1.707661943  -1.604626465  -1.970875345
  C    1.958697475  -0.378135124  -0.245994318
  O    3.168675925  -0.352120436  -0.082571650
  N    1.139357068   0.597847959   0.211162300
  H    0.142645284   0.533069569   0.050782326
  C    1.665042758   1.742249536   0.926437324
  H    2.231429950   1.428097356   1.802547648
  H    2.332728663   2.330593730   0.296675580
  H    0.833374213   2.366619534   1.243879368
  H   -2.185594087   2.159159322  -1.143030865
  H   -3.367430665   0.849970667  -1.466775025
  H   -1.748527808   0.858241237  -2.238562113
  H   -2.029276027  -2.191790854   1.260792340
  H   -0.851448955  -0.889049567   1.615743795
  H   -2.480766148  -0.903398737   2.362206988
  C   -2.313941152   1.094224721  -1.336978217
  N   -1.717917315   0.358367220  -0.226023306
  N   -2.500088725  -0.390205448   0.357380994
  C   -1.903915316  -1.128538641   1.465459481
