26
charge=0 charge_a=0 charge_b=0 selection_a=1-12 selection_b=13-26 scaling=1.25 benchmark_Eint=-5.292 benchmark_unit=kcal/mol group=NH-N
  C   -3.461604396  -1.276640626   0.000000000
  H   -4.085405742  -1.436606373  -0.877682719
  H   -2.647973705  -1.999649389   0.000000000
  H   -4.085405742  -1.436606373   0.877682719
  C   -2.982023160   0.162273590   0.000000000
  O   -3.763788140   1.100466744   0.000000000
  N   -1.639018061   0.330560810   0.000000000
  H   -1.042640436  -0.481448654   0.000000000
  C   -1.044274073   1.652945702   0.000000000
  H   -1.353317942   2.217436334  -0.879430904
  H    0.036281592   1.551261780   0.000000000
  H   -1.353317942   2.217436334   0.879430904
  H    1.912884415  -1.310094138   2.140624196
  H    4.246734802   1.574468536   0.000000000
  H    3.464700950   0.597589836   2.138755398
  H    1.912884415  -1.310094138  -2.140624196
  H    0.852635060  -3.041978686   0.830726646
  H    3.464700950   0.597589836  -2.138755398
  H    0.852635060  -3.041978686  -0.830726646
  C    3.571874025   0.731626116   0.000000000
  C    3.132151857   0.181775610   1.198266303
  C    2.261720150  -0.898055526   1.203016469
  C    1.816587704  -1.447803850   0.000000000
  C    2.261720150  -0.898055526  -1.203016469
  C    3.132151857   0.181775610  -1.198266303
  N    0.855273569  -2.471364066   0.000000000
