18
charge=0 charge_a=0 charge_b=0 selection_a=1-7 selection_b=8-18 scaling=0.9 benchmark_Eint=-4.087 benchmark_unit=kcal/mol group=NH-N
  N    3.010909274  -0.058661092   0.587394445
  H    2.176267197   0.504421880   0.712389291
  H    3.726668782   0.307200900   1.200094675
  C    3.443762837  -0.009656765  -0.807053881
  H    4.311094368  -0.655059908  -0.947335972
  H    3.704164685   0.989957081  -1.176591431
  H    2.645676323  -0.395315269  -1.441151836
  H   -2.965942466   1.467931101  -0.378522168
  H   -0.721049896   2.390887752   0.136047401
  C   -2.296267014  -0.574775170  -0.207611843
  C   -2.137368423   0.803700522  -0.180888081
  C   -0.880602707   1.319988242   0.107240073
  N    0.183077322   0.557951520   0.360123259
  C    0.022120552  -0.766474179   0.332565913
  C   -1.194662249  -1.376579889   0.054243610
  H    0.908785749  -1.351913448   0.542305492
  H   -1.270929550  -2.454003564   0.044542480
  H   -3.258890980  -1.014306967  -0.428044843
