22
charge=0 charge_a=0 charge_b=0 selection_a=1-12 selection_b=13-22 scaling=1.1 benchmark_Eint=-5.865 benchmark_unit=kcal/mol group=NH-N
  C    1.276026524  -1.519077241  -0.975360374
  H    0.198689074  -1.391723657  -1.059570174
  H    1.488171405  -2.447306885  -0.447328988
  H    1.707661943  -1.604626465  -1.970875345
  C    1.958697475  -0.378135124  -0.245994318
  O    3.168675925  -0.352120436  -0.082571650
  N    1.139357068   0.597847959   0.211162300
  H    0.142645284   0.533069569   0.050782326
  C    1.665042758   1.742249536   0.926437324
  H    2.231429950   1.428097356   1.802547648
  H    2.332728663   2.330593730   0.296675580
  H    0.833374213   2.366619534   1.243879368
  H   -2.599052443   2.120336578  -1.204543227
  H   -3.780889021   0.811147923  -1.528287387
  H   -2.161986164   0.819418493  -2.300074475
  H   -2.442734383  -2.230613598   1.199279978
  H   -1.264907311  -0.927872311   1.554231433
  H   -2.894224504  -0.942221481   2.300694626
  C   -2.727399508   1.055401977  -1.398490579
  N   -2.131375671   0.319544476  -0.287535668
  N   -2.913547081  -0.429028192   0.295868632
  C   -2.317373672  -1.167361385   1.403947119
