21
charge=0 charge_a=0 charge_b=0 selection_a=1-7 selection_b=8-21 scaling=2.0 benchmark_Eint=-0.755 benchmark_unit=kcal/mol group=NH-N
  N   -2.552541320   0.014553820  -0.615264217
  H   -1.616465240  -0.376532866  -0.683394912
  H   -3.168111288  -0.538375051  -1.196012472
  C   -2.996413656  -0.000780988   0.775359844
  H   -3.979880311   0.462856578   0.857744180
  H   -3.054879006  -0.996536852   1.233583262
  H   -2.307079381   0.593965915   1.375006811
  H    5.356159743  -0.320880080   0.105439592
  H    5.091407949   1.214868223   0.938267655
  H    4.845929624  -0.318408346   1.781325904
  H    2.642013442   2.080596846   1.112009210
  H    4.117861917  -2.314594922  -0.282810345
  H    3.618535011  -2.307069875   1.408766989
  H    2.545349282  -2.972151917   0.175330678
  H    3.155204945   2.084111432  -0.561447495
  H    1.579468480   1.379811820  -0.131343059
  C    3.278538621   0.172563960   0.387734140
  N    2.615997622  -0.892299190   0.185757680
  C    3.260151385  -2.179658720   0.382888025
  C    2.611053276   1.501689261   0.185787863
  C    4.724028888   0.198150231   0.827808617
