20
charge=0 charge_a=0 charge_b=0 selection_a=1-7 selection_b=8-20 scaling=1.0 benchmark_Eint=-4.736 benchmark_unit=kcal/mol group=NH-N
  N   -2.063249797  -0.704944079  -0.154966234
  H   -1.106567202  -0.483428816  -0.417444501
  H   -2.425526964  -1.358101999  -0.836277569
  C   -2.877348118   0.507152304  -0.118194458
  H   -3.895550807   0.259771589   0.182446018
  H   -2.932316387   1.058919290  -1.065346459
  H   -2.476095866   1.185505060   0.634813543
  H    1.665797914   0.970221531   1.707574365
  H    0.005079570   0.337575718   1.733133732
  H    0.374735301   1.804257521   0.821251962
  H    1.516423219   1.649955671  -1.278893200
  H    2.909689774   0.823628725  -0.555394253
  H    2.022304009   0.075171121  -1.896836468
  H    2.397758485  -1.311367689   0.813111296
  H    1.566636286  -1.911060907  -0.635099052
  C    0.752541631   0.823916909   1.108685221
  N    0.990897428   0.020917510  -0.079744247
  C    1.909664425   0.674832924  -0.994572483
  C    1.439397217  -1.317293300   0.269249714
  H    0.691142836  -1.801060556   0.894827231
