22
charge=0 charge_a=0 charge_b=0 selection_a=1-12 selection_b=13-22 scaling=0.8 benchmark_Eint=-1.991 benchmark_unit=kcal/mol group=NH-N
  C    1.276026524  -1.519077241  -0.975360374
  H    0.198689074  -1.391723657  -1.059570174
  H    1.488171405  -2.447306885  -0.447328988
  H    1.707661943  -1.604626465  -1.970875345
  C    1.958697475  -0.378135124  -0.245994318
  O    3.168675925  -0.352120436  -0.082571650
  N    1.139357068   0.597847959   0.211162300
  H    0.142645284   0.533069569   0.050782326
  C    1.665042758   1.742249536   0.926437324
  H    2.231429950   1.428097356   1.802547648
  H    2.332728663   2.330593730   0.296675580
  H    0.833374213   2.366619534   1.243879368
  H   -1.978864910   2.178570694  -1.112274683
  H   -3.160701488   0.869382039  -1.436018843
  H   -1.541798631   0.877652609  -2.207805931
  H   -1.822546850  -2.172379482   1.291548522
  H   -0.644719778  -0.869638195   1.646499977
  H   -2.274036971  -0.883987365   2.392963170
  C   -2.107211975   1.113636093  -1.306222035
  N   -1.511188138   0.377778592  -0.195267124
  N   -2.293359548  -0.370794076   0.388137176
  C   -1.697186139  -1.109127269   1.496215663
