18
charge=0 charge_a=0 charge_b=0 selection_a=1-7 selection_b=8-18 scaling=1.05 benchmark_Eint=-4.620 benchmark_unit=kcal/mol group=NH-N
  N    3.010909274  -0.058661092   0.587394445
  H    2.176267197   0.504421880   0.712389291
  H    3.726668782   0.307200900   1.200094675
  C    3.443762837  -0.009656765  -0.807053881
  H    4.311094368  -0.655059908  -0.947335972
  H    3.704164685   0.989957081  -1.176591431
  H    2.645676323  -0.395315269  -1.441151836
  H   -3.298140779   1.476852708  -0.437233173
  H   -1.053248209   2.399809359   0.077336396
  C   -2.628465327  -0.565853563  -0.266322848
  C   -2.469566736   0.812622129  -0.239599086
  C   -1.212801020   1.328909849   0.048529068
  N   -0.149120991   0.566873127   0.301412254
  C   -0.310077761  -0.757552572   0.273854908
  C   -1.526860562  -1.367658282  -0.004467395
  H    0.576587436  -1.342991841   0.483594487
  H   -1.603127863  -2.445081957  -0.014168525
  H   -3.591089293  -1.005385360  -0.486755848
