16
charge=0 charge_a=0 charge_b=0 selection_a=1-12 selection_b=13-16 scaling=1.05 benchmark_Eint=-6.447 benchmark_unit=kcal/mol group=NH-N
  C    0.477997052   1.823971327   0.000002135
  H    0.893081600   2.316421581  -0.877668978
  H   -0.603923273   1.940229470  -0.000006675
  H    0.893068241   2.316414633   0.877683818
  C    0.922617323   0.374007027  -0.000000565
  O    2.105653051   0.066890241  -0.000002636
  N   -0.070496332  -0.543588771   0.000001159
  H   -1.039420317  -0.246241121   0.000004388
  C    0.227721646  -1.960414604   0.000001361
  H    0.807832383  -2.241013821   0.879188761
  H    0.807835572  -2.241012820  -0.879184215
  H   -0.708402678  -2.513694229  -0.000000800
  N   -3.167382745   0.264991050  -0.000001595
  H   -3.420357082   0.809811728   0.815211853
  H   -3.753822553  -0.560491918  -0.000003532
  H   -3.420352292   0.809811789  -0.815216463
