21
charge=0 charge_a=0 charge_b=0 selection_a=1-7 selection_b=8-21 scaling=1.25 benchmark_Eint=-3.769 benchmark_unit=kcal/mol group=NH-N
  N   -2.552541320   0.014553820  -0.615264217
  H   -1.616465240  -0.376532866  -0.683394912
  H   -3.168111288  -0.538375051  -1.196012472
  C   -2.996413656  -0.000780988   0.775359844
  H   -3.979880311   0.462856578   0.857744180
  H   -3.054879006  -0.996536852   1.233583262
  H   -2.307079381   0.593965915   1.375006811
  H    3.768986170  -0.127467708  -0.220492630
  H    3.504234376   1.408280594   0.612335433
  H    3.258756051  -0.124995974   1.455393682
  H    1.054839869   2.274009218   0.786076988
  H    2.530688344  -2.121182550  -0.608742567
  H    2.031361438  -2.113657504   1.082834767
  H    0.958175709  -2.778739546  -0.150601544
  H    1.568031372   2.277523804  -0.887379717
  H   -0.007705093   1.573224192  -0.457275281
  C    1.691365048   0.365976332   0.061801918
  N    1.028824049  -0.698886818  -0.140174542
  C    1.672977812  -1.986246348   0.056955803
  C    1.023879703   1.695101632  -0.140144359
  C    3.136855315   0.391562602   0.501876395
