22
charge=0 charge_a=0 charge_b=0 selection_a=1-12 selection_b=13-22 scaling=0.85 benchmark_Eint=-4.106 benchmark_unit=kcal/mol group=NH-N
  C    1.276026524  -1.519077241  -0.975360374
  H    0.198689074  -1.391723657  -1.059570174
  H    1.488171405  -2.447306885  -0.447328988
  H    1.707661943  -1.604626465  -1.970875345
  C    1.958697475  -0.378135124  -0.245994318
  O    3.168675925  -0.352120436  -0.082571650
  N    1.139357068   0.597847959   0.211162300
  H    0.142645284   0.533069569   0.050782326
  C    1.665042758   1.742249536   0.926437324
  H    2.231429950   1.428097356   1.802547648
  H    2.332728663   2.330593730   0.296675580
  H    0.833374213   2.366619534   1.243879368
  H   -2.082229498   2.168865008  -1.127652774
  H   -3.264066076   0.859676353  -1.451396934
  H   -1.645163219   0.867946923  -2.223184022
  H   -1.925911438  -2.182085168   1.276170431
  H   -0.748084366  -0.879343881   1.631121886
  H   -2.377401559  -0.893693051   2.377585079
  C   -2.210576563   1.103930407  -1.321600126
  N   -1.614552726   0.368072906  -0.210645215
  N   -2.396724136  -0.380499762   0.372759085
  C   -1.800550727  -1.118832955   1.480837572
