19
charge=0 charge_a=0 charge_b=0 selection_a=1-12 selection_b=13-19 scaling=1.1 benchmark_Eint=-7.100 benchmark_unit=kcal/mol group=NH-N
  C    0.683724360  -1.802518360  -0.255134042
  H    1.291553930  -2.338926592  -0.980865871
  H    0.715143752  -2.364880410   0.677070242
  H   -0.343487439  -1.753937835  -0.610547271
  C    1.298498149  -0.435689824  -0.020629713
  O    2.472892372  -0.307879108   0.293409462
  N    0.463493990   0.615750314  -0.176288692
  H   -0.511238040   0.462043239  -0.417837780
  C    0.927936654   1.970292665   0.036651789
  H    1.745436954   2.216828072  -0.640685755
  H    1.292729233   2.108169813   1.054847160
  H    0.101185283   2.654035332  -0.141343330
  N   -2.725945395   0.176850757  -0.605567077
  H   -3.192143069   1.051688915  -0.808051823
  H   -2.998286622  -0.470212794  -1.334131835
  C   -3.121237833  -0.328382207   0.714792121
  H   -2.604240158  -1.266605373   0.907838781
  H   -4.195354275  -0.498649629   0.829620824
  H   -2.802951857   0.379893742   1.477572599
