19
charge=0 charge_a=0 charge_b=0 selection_a=1-12 selection_b=13-19 scaling=0.9 benchmark_Eint=-6.645 benchmark_unit=kcal/mol group=NH-N
  C    0.683724360  -1.802518360  -0.255134042
  H    1.291553930  -2.338926592  -0.980865871
  H    0.715143752  -2.364880410   0.677070242
  H   -0.343487439  -1.753937835  -0.610547271
  C    1.298498149  -0.435689824  -0.020629713
  O    2.472892372  -0.307879108   0.293409462
  N    0.463493990   0.615750314  -0.176288692
  H   -0.511238040   0.462043239  -0.417837780
  C    0.927936654   1.970292665   0.036651789
  H    1.745436954   2.216828072  -0.640685755
  H    1.292729233   2.108169813   1.054847160
  H    0.101185283   2.654035332  -0.141343330
  N   -2.323271331   0.228703935  -0.571434477
  H   -2.789469005   1.103542093  -0.773919223
  H   -2.595612558  -0.418359616  -1.299999235
  C   -2.718563769  -0.276529029   0.748924721
  H   -2.201566094  -1.214752195   0.941971381
  H   -3.792680211  -0.446796451   0.863753424
  H   -2.400277793   0.431746920   1.511705199
