14
charge=0 charge_a=0 charge_b=0 selection_a=1-7 selection_b=8-14 scaling=1.25 benchmark_Eint=-2.932 benchmark_unit=kcal/mol group=NH-N
  N    1.427339082  -0.599460933  -0.391210405
  H    0.524716799  -0.814135861   0.022375840
  H    2.004866126  -1.425237666  -0.309450334
  C    2.047308300   0.531660202   0.293967970
  H    3.009553628   0.759268640  -0.165146751
  H    2.214250713   0.389080652   1.369340867
  H    1.417609392   1.413212598   0.173110974
  N   -2.211342495  -0.552578078   0.395076710
  H   -2.551439126  -1.248569382  -0.255371135
  H   -2.783933653  -0.620757020   1.225653825
  C   -2.293589826   0.788110558  -0.192281665
  H   -1.945960527   1.518374352   0.537018632
  H   -3.296701994   1.083730756  -0.516824227
  H   -1.624381705   0.839577804  -1.049369932
