22
charge=0 charge_a=0 charge_b=0 selection_a=1-12 selection_b=13-22 scaling=0.9 benchmark_Eint=-7.003 benchmark_unit=kcal/mol group=NH-N
  C    0.936148994   1.803524151   0.000000000
  H    1.247586894   2.366974188   0.877790110
  H    1.247586894   2.366974188  -0.877790110
  H   -0.147317299   1.708883430   0.000000000
  C    1.652223100   0.466504076   0.000000000
  O    2.872648699   0.395551997   0.000000000
  N    0.855329160  -0.625080597   0.000000000
  H   -0.156992093  -0.523366400   0.000000000
  C    1.423170645  -1.956683386   0.000000000
  H    2.046676181  -2.120112683   0.879135935
  H    2.046676181  -2.120112683  -0.879135935
  H    0.611997806  -2.681251498   0.000000000
  H   -2.011740635   1.201404574   1.275250578
  H   -3.532116401   0.300419373   1.265804280
  H   -2.101883230  -0.357269031   2.088248986
  H   -2.279301584  -1.419118968   0.000000000
  H   -2.101883230  -0.357269031  -2.088248986
  H   -2.011740635   1.201404574  -1.275250578
  H   -3.532116401   0.300419373  -1.265804280
  C   -2.440282138   0.200903164   1.217442241
  N   -1.973626718  -0.454950135   0.000000000
  C   -2.440282138   0.200903164  -1.217442241
