18
charge=0 charge_a=0 charge_b=0 selection_a=1-7 selection_b=8-18 scaling=1.0 benchmark_Eint=-4.742 benchmark_unit=kcal/mol group=NH-N
  N    3.010909274  -0.058661092   0.587394445
  H    2.176267197   0.504421880   0.712389291
  H    3.726668782   0.307200900   1.200094675
  C    3.443762837  -0.009656765  -0.807053881
  H    4.311094368  -0.655059908  -0.947335972
  H    3.704164685   0.989957081  -1.176591431
  H    2.645676323  -0.395315269  -1.441151836
  H   -3.187408008   1.473878839  -0.417662838
  H   -0.942515438   2.396835490   0.096906731
  C   -2.517732556  -0.568827432  -0.246752513
  C   -2.358833965   0.809648260  -0.220028751
  C   -1.102068249   1.325935980   0.068099403
  N   -0.038388220   0.563899258   0.320982589
  C   -0.199344990  -0.760526441   0.293425243
  C   -1.416127791  -1.370632151   0.015102940
  H    0.687320207  -1.345965710   0.503164822
  H   -1.492395092  -2.448055826   0.005401810
  H   -3.480356522  -1.008359229  -0.467185513
