14
charge=0 charge_a=0 charge_b=0 selection_a=1-7 selection_b=8-14 scaling=0.95 benchmark_Eint=-4.057 benchmark_unit=kcal/mol group=NH-N
  N    1.427339082  -0.599460933  -0.391210405
  H    0.524716799  -0.814135861   0.022375840
  H    2.004866126  -1.425237666  -0.309450334
  C    2.047308300   0.531660202   0.293967970
  H    3.009553628   0.759268640  -0.165146751
  H    2.214250713   0.389080652   1.369340867
  H    1.417609392   1.413212598   0.173110974
  N   -1.554688264  -0.615351946   0.305628501
  H   -1.894784895  -1.311343249  -0.344819344
  H   -2.127279422  -0.683530888   1.136205616
  C   -1.636935595   0.725336691  -0.281729874
  H   -1.289306296   1.455600484   0.447570423
  H   -2.640047763   1.020956889  -0.606272436
  H   -0.967727474   0.776803936  -1.138818141
