16
charge=0 charge_a=0 charge_b=0 selection_a=1-12 selection_b=13-16 scaling=1.5 benchmark_Eint=-3.257 benchmark_unit=kcal/mol group=NH-N
  C    0.477997052   1.823971327   0.000002135
  H    0.893081600   2.316421581  -0.877668978
  H   -0.603923273   1.940229470  -0.000006675
  H    0.893068241   2.316414633   0.877683818
  C    0.922617323   0.374007027  -0.000000565
  O    2.105653051   0.066890241  -0.000002636
  N   -0.070496332  -0.543588771   0.000001159
  H   -1.039420317  -0.246241121   0.000004388
  C    0.227721646  -1.960414604   0.000001361
  H    0.807832383  -2.241013821   0.879188761
  H    0.807835572  -2.241012820  -0.879184215
  H   -0.708402678  -2.513694229  -0.000000800
  N   -4.079366643   0.484090552  -0.000004159
  H   -4.332340980   1.028911230   0.815209289
  H   -4.665806451  -0.341392416  -0.000006096
  H   -4.332336190   1.028911291  -0.815219027
