14
charge=0 charge_a=0 charge_b=0 selection_a=1-7 selection_b=8-14 scaling=0.85 benchmark_Eint=-2.527 benchmark_unit=kcal/mol group=NH-N
  N    1.427339082  -0.599460933  -0.391210405
  H    0.524716799  -0.814135861   0.022375840
  H    2.004866126  -1.425237666  -0.309450334
  C    2.047308300   0.531660202   0.293967970
  H    3.009553628   0.759268640  -0.165146751
  H    2.214250713   0.389080652   1.369340867
  H    1.417609392   1.413212598   0.173110974
  N   -1.335803521  -0.636276569   0.275812432
  H   -1.675900152  -1.332267872  -0.374635413
  H   -1.908394679  -0.704455511   1.106389547
  C   -1.418050852   0.704412068  -0.311545943
  H   -1.070421553   1.434675861   0.417754354
  H   -2.421163020   1.000032266  -0.636088505
  H   -0.748842731   0.755879313  -1.168634210
