22
charge=0 charge_a=0 charge_b=0 selection_a=1-12 selection_b=13-22 scaling=1.0 benchmark_Eint=-6.148 benchmark_unit=kcal/mol group=NH-N
  C    1.276026524  -1.519077241  -0.975360374
  H    0.198689074  -1.391723657  -1.059570174
  H    1.488171405  -2.447306885  -0.447328988
  H    1.707661943  -1.604626465  -1.970875345
  C    1.958697475  -0.378135124  -0.245994318
  O    3.168675925  -0.352120436  -0.082571650
  N    1.139357068   0.597847959   0.211162300
  H    0.142645284   0.533069569   0.050782326
  C    1.665042758   1.742249536   0.926437324
  H    2.231429950   1.428097356   1.802547648
  H    2.332728663   2.330593730   0.296675580
  H    0.833374213   2.366619534   1.243879368
  H   -2.392323265   2.139747950  -1.173787046
  H   -3.574159843   0.830559295  -1.497531206
  H   -1.955256986   0.838829865  -2.269318294
  H   -2.236005205  -2.211202226   1.230036159
  H   -1.058178133  -0.908460939   1.584987614
  H   -2.687495326  -0.922810109   2.331450807
  C   -2.520670330   1.074813349  -1.367734398
  N   -1.924646493   0.338955848  -0.256779487
  N   -2.706817903  -0.409616820   0.326624813
  C   -2.110644494  -1.147950013   1.434703300
