18
charge=0 charge_a=0 charge_b=0 selection_a=1-7 selection_b=8-18 scaling=0.95 benchmark_Eint=-4.618 benchmark_unit=kcal/mol group=NH-N
  N    3.010909274  -0.058661092   0.587394445
  H    2.176267197   0.504421880   0.712389291
  H    3.726668782   0.307200900   1.200094675
  C    3.443762837  -0.009656765  -0.807053881
  H    4.311094368  -0.655059908  -0.947335972
  H    3.704164685   0.989957081  -1.176591431
  H    2.645676323  -0.395315269  -1.441151836
  H   -3.076675237   1.470904970  -0.398092503
  H   -0.831782667   2.393861621   0.116477066
  C   -2.406999785  -0.571801301  -0.227182178
  C   -2.248101194   0.806674391  -0.200458416
  C   -0.991335478   1.322962111   0.087669738
  N    0.072344551   0.560925389   0.340552924
  C   -0.088612219  -0.763500310   0.312995578
  C   -1.305395020  -1.373606020   0.034673275
  H    0.798052978  -1.348939579   0.522735157
  H   -1.381662321  -2.451029695   0.024972145
  H   -3.369623751  -1.011333098  -0.447615178
