26
charge=0 charge_a=0 charge_b=0 selection_a=1-12 selection_b=13-26 scaling=1.1 benchmark_Eint=-8.785 benchmark_unit=kcal/mol group=NH-N
  C    1.604751767  -1.393050016  -1.186149947
  H    1.760394030  -2.389143286  -0.774418709
  H    2.078821927  -1.368178832  -2.165724929
  H    0.538072931  -1.208957254  -1.294824905
  C    2.292519227  -0.382798403  -0.287303780
  O    3.496462472  -0.425778644  -0.076753708
  N    1.484769772   0.551972131   0.260385790
  H    0.486994292   0.544932123   0.058306453
  C    2.014066598   1.570676487   1.141621280
  H    2.730422756   2.210415601   0.625064476
  H    1.188567630   2.180069234   1.501985066
  H    2.528360606   1.124978923   1.993044021
  H   -4.095088374  -0.640647982  -1.029799375
  H   -4.378481094  -1.159081410   0.635298270
  H   -4.395678042   0.556993789   0.212868112
  H   -2.353579383  -1.107713034   2.264241205
  H   -2.662338053   0.901754643  -2.124548075
  H   -2.928589812   2.107075837  -0.864095145
  H   -1.374460197   2.031349231  -1.698238256
  H   -2.044231637  -2.281745867   1.002141399
  H   -0.789125286  -1.097993408   1.423164898
  C   -2.425632358  -0.304526499   0.283507088
  N   -1.649569294   0.514145309  -0.301510964
  C   -2.185505647   1.430532423  -1.294855075
  C   -1.857407515  -1.248283808   1.301725581
  C   -3.907831743  -0.399152081   0.017728732
