19
charge=0 charge_a=0 charge_b=0 selection_a=1-12 selection_b=13-19 scaling=1.25 benchmark_Eint=-3.813 benchmark_unit=kcal/mol group=NH-N
  C   -1.406794039  -1.762606241  -0.415104483
  H   -0.329963292  -1.685191078  -0.550470991
  H   -1.619968542  -2.415390217   0.429840405
  H   -1.846968955  -2.220642788  -1.298852990
  C   -2.079503286  -0.424994223  -0.177253533
  O   -3.285535920  -0.328968972  -0.017161003
  N   -1.255383783   0.650870250  -0.147915340
  H   -0.265688787   0.524185901  -0.287144604
  C   -1.771959306   1.988460300   0.061886409
  H   -2.361215531   2.034930410   0.976598222
  H   -2.415325716   2.298821931  -0.761694941
  H   -0.935067942   2.677804861   0.138362011
  H    2.581985502  -1.581883446   1.780151646
  H    2.884099988   0.067142072   2.381717830
  H    1.225544336  -0.484347674   2.088682784
  C    2.250104714  -0.543989034   1.738697054
  N    2.247879180  -0.038516806   0.354388744
  N    3.333870242  -0.027582988  -0.217791642
  N    4.275625368   0.026266532  -0.834891302
