26
charge=0 charge_a=0 charge_b=0 selection_a=1-12 selection_b=13-26 scaling=0.9 benchmark_Eint=-8.125 benchmark_unit=kcal/mol group=NH-N
  C    1.604751767  -1.393050016  -1.186149947
  H    1.760394030  -2.389143286  -0.774418709
  H    2.078821927  -1.368178832  -2.165724929
  H    0.538072931  -1.208957254  -1.294824905
  C    2.292519227  -0.382798403  -0.287303780
  O    3.496462472  -0.425778644  -0.076753708
  N    1.484769772   0.551972131   0.260385790
  H    0.486994292   0.544932123   0.058306453
  C    2.014066598   1.570676487   1.141621280
  H    2.730422756   2.210415601   0.625064476
  H    1.188567630   2.180069234   1.501985066
  H    2.528360606   1.124978923   1.993044021
  H   -3.706622268  -0.635050380  -0.964378027
  H   -3.990014988  -1.153483808   0.700719618
  H   -4.007211936   0.562591391   0.278289460
  H   -1.965113277  -1.102115432   2.329662553
  H   -2.273871947   0.907352245  -2.059126727
  H   -2.540123706   2.112673439  -0.798673797
  H   -0.985994091   2.036946833  -1.632816908
  H   -1.655765531  -2.276148265   1.067562747
  H   -0.400659180  -1.092395806   1.488586246
  C   -2.037166252  -0.298928897   0.348928436
  N   -1.261103188   0.519742911  -0.236089616
  C   -1.797039541   1.436130025  -1.229433727
  C   -1.468941409  -1.242686206   1.367146929
  C   -3.519365637  -0.393554479   0.083150080
