26
charge=0 charge_a=0 charge_b=0 selection_a=1-12 selection_b=13-26 scaling=0.8 benchmark_Eint=-4.037 benchmark_unit=kcal/mol group=NH-N
  C    1.604751767  -1.393050016  -1.186149947
  H    1.760394030  -2.389143286  -0.774418709
  H    2.078821927  -1.368178832  -2.165724929
  H    0.538072931  -1.208957254  -1.294824905
  C    2.292519227  -0.382798403  -0.287303780
  O    3.496462472  -0.425778644  -0.076753708
  N    1.484769772   0.551972131   0.260385790
  H    0.486994292   0.544932123   0.058306453
  C    2.014066598   1.570676487   1.141621280
  H    2.730422756   2.210415601   0.625064476
  H    1.188567630   2.180069234   1.501985066
  H    2.528360606   1.124978923   1.993044021
  H   -3.512389214  -0.632251578  -0.931667352
  H   -3.795781934  -1.150685006   0.733430293
  H   -3.812978882   0.565390193   0.311000135
  H   -1.770880223  -1.099316630   2.362373228
  H   -2.079638893   0.910151047  -2.026416052
  H   -2.345890652   2.115472241  -0.765963122
  H   -0.791761037   2.039745635  -1.600106233
  H   -1.461532477  -2.273349463   1.100273422
  H   -0.206426126  -1.089597004   1.521296921
  C   -1.842933198  -0.296130095   0.381639111
  N   -1.066870134   0.522541713  -0.203378941
  C   -1.602806487   1.438928827  -1.196723052
  C   -1.274708355  -1.239887404   1.399857604
  C   -3.325132583  -0.390755677   0.115860755
