19
charge=0 charge_a=0 charge_b=0 selection_a=1-12 selection_b=13-19 scaling=2.0 benchmark_Eint=-0.871 benchmark_unit=kcal/mol group=NH-N
  C   -1.406794039  -1.762606241  -0.415104483
  H   -0.329963292  -1.685191078  -0.550470991
  H   -1.619968542  -2.415390217   0.429840405
  H   -1.846968955  -2.220642788  -1.298852990
  C   -2.079503286  -0.424994223  -0.177253533
  O   -3.285535920  -0.328968972  -0.017161003
  N   -1.255383783   0.650870250  -0.147915340
  H   -0.265688787   0.524185901  -0.287144604
  C   -1.771959306   1.988460300   0.061886409
  H   -2.361215531   2.034930410   0.976598222
  H   -2.415325716   2.298821931  -0.761694941
  H   -0.935067942   2.677804861   0.138362011
  H    4.090126282  -1.919505071   2.165071654
  H    4.392240768  -0.270479553   2.766637839
  H    2.733685117  -0.821969298   2.473602792
  C    3.758245494  -0.881610659   2.123617063
  N    3.756019961  -0.376138431   0.739308752
  N    4.842011023  -0.365204613   0.167128367
  N    5.783766149  -0.311355092  -0.449971294
