23
charge=0 charge_a=0 charge_b=0 selection_a=1-12 selection_b=13-23 scaling=1.25 benchmark_Eint=-6.202 benchmark_unit=kcal/mol group=NH-N
  C   -2.082770382  -1.795571692  -0.392204543
  H   -2.511617402  -2.195634714  -1.309398136
  H   -1.003286426  -1.717772224  -0.502853894
  H   -2.315105258  -2.496162019   0.408233121
  C   -2.747907210  -0.467790469  -0.084178755
  O   -3.957585171  -0.374838247   0.066815708
  N   -1.915201904   0.593172422   0.012029300
  H   -0.916601631   0.468475925  -0.119172455
  C   -2.424286048   1.916982401   0.301905746
  H   -2.965712971   1.931342484   1.247837904
  H   -3.111435060   2.255543622  -0.473977557
  H   -1.585490514   2.606473620   0.360074400
  H    4.415669902   0.273380814  -1.918222175
  H    1.966536880   0.643403860  -2.100030615
  C    4.298533812  -0.268853106   0.165270541
  C    3.778323526   0.127541152  -1.058782512
  C    2.409638376   0.335050266  -1.161642293
  N    1.570531529   0.171490868  -0.138597215
  C    2.077685439  -0.209824260   1.034151722
  C    3.431431770  -0.441600546   1.234918527
  H    1.368354537  -0.335101028   1.842707235
  H    3.791685683  -0.749714742   2.205150364
  H    5.359012597  -0.440326574   0.283069850
