25
charge=0 charge_a=0 charge_b=0 selection_a=1-12 selection_b=13-25 scaling=1.1 benchmark_Eint=-7.793 benchmark_unit=kcal/mol group=NH-N
  C   -1.511364416  -1.810199427  -0.000000000
  H   -1.908644981  -2.316764742   0.877790829
  H   -1.908644981  -2.316764742  -0.877790829
  H   -0.426625894  -1.889087007  -0.000000000
  C   -2.005161935  -0.376175625  -0.000000000
  O   -3.198253008  -0.110625175  -0.000000000
  N   -1.043627683   0.574173582  -0.000000000
  H   -0.061324777   0.307544901  -0.000000000
  C   -1.392743612   1.979560477   0.000000000
  H   -1.982902730   2.239247749  -0.878983992
  H   -0.477890680   2.566914617   0.000000000
  H   -1.982902730   2.239247749   0.878983992
  H    3.552736776  -0.969584970  -1.290790701
  H    2.129148870  -0.265729392  -2.083218779
  H    1.981159458  -1.786099312  -1.200108665
  H    1.981159458  -1.786099312   1.200108665
  H    3.552736776  -0.969584970   1.290790701
  H    2.129148870  -0.265729392   2.083218779
  H    3.795565947   1.230307320   0.000000000
  H    2.368683516   1.803345792   0.883484819
  C    2.467270339  -0.811966640  -1.204157517
  N    2.109060562  -0.075994282   0.000000000
  C    2.467270339  -0.811966640   1.204157517
  C    2.695615504   1.257053502   0.000000000
  H    2.368683516   1.803345792  -0.883484819
