26
charge=0 charge_a=0 charge_b=0 selection_a=1-12 selection_b=13-26 scaling=0.95 benchmark_Eint=-8.892 benchmark_unit=kcal/mol group=NH-N
  C    1.604751767  -1.393050016  -1.186149947
  H    1.760394030  -2.389143286  -0.774418709
  H    2.078821927  -1.368178832  -2.165724929
  H    0.538072931  -1.208957254  -1.294824905
  C    2.292519227  -0.382798403  -0.287303780
  O    3.496462472  -0.425778644  -0.076753708
  N    1.484769772   0.551972131   0.260385790
  H    0.486994292   0.544932123   0.058306453
  C    2.014066598   1.570676487   1.141621280
  H    2.730422756   2.210415601   0.625064476
  H    1.188567630   2.180069234   1.501985066
  H    2.528360606   1.124978923   1.993044021
  H   -3.803738794  -0.636449780  -0.980733364
  H   -4.087131514  -1.154883208   0.684364281
  H   -4.104328462   0.561191991   0.261934123
  H   -2.062229803  -1.103514832   2.313307216
  H   -2.370988473   0.905952845  -2.075482064
  H   -2.637240232   2.111274039  -0.815029134
  H   -1.083110617   2.035547433  -1.649172245
  H   -1.752882057  -2.277547665   1.051207410
  H   -0.497775706  -1.093795206   1.472230909
  C   -2.134282778  -0.300328297   0.332573099
  N   -1.358219714   0.518343511  -0.252444953
  C   -1.894156067   1.434730625  -1.245789064
  C   -1.566057935  -1.244085606   1.350791592
  C   -3.616482163  -0.394953879   0.066794743
