23
charge=0 charge_a=0 charge_b=0 selection_a=1-12 selection_b=13-23 scaling=1.1 benchmark_Eint=-7.518 benchmark_unit=kcal/mol group=NH-N
  C   -2.082770382  -1.795571692  -0.392204543
  H   -2.511617402  -2.195634714  -1.309398136
  H   -1.003286426  -1.717772224  -0.502853894
  H   -2.315105258  -2.496162019   0.408233121
  C   -2.747907210  -0.467790469  -0.084178755
  O   -3.957585171  -0.374838247   0.066815708
  N   -1.915201904   0.593172422   0.012029300
  H   -0.916601631   0.468475925  -0.119172455
  C   -2.424286048   1.916982401   0.301905746
  H   -2.965712971   1.931342484   1.247837904
  H   -3.111435060   2.255543622  -0.473977557
  H   -1.585490514   2.606473620   0.360074400
  H    4.117213923   0.309019020  -1.915891204
  H    1.668080901   0.679042066  -2.097699644
  C    4.000077833  -0.233214899   0.167601512
  C    3.479867547   0.163179359  -1.056451541
  C    2.111182397   0.370688472  -1.159311322
  N    1.272075550   0.207129074  -0.136266244
  C    1.779229460  -0.174186054   1.036482693
  C    3.132975791  -0.405962339   1.237249498
  H    1.069898558  -0.299462821   1.845038206
  H    3.493229704  -0.714076535   2.207481335
  H    5.060556618  -0.404688368   0.285400821
