23
charge=0 charge_a=0 charge_b=0 selection_a=1-12 selection_b=13-23 scaling=1.0 benchmark_Eint=-7.867 benchmark_unit=kcal/mol group=NH-N
  C   -2.082770382  -1.795571692  -0.392204543
  H   -2.511617402  -2.195634714  -1.309398136
  H   -1.003286426  -1.717772224  -0.502853894
  H   -2.315105258  -2.496162019   0.408233121
  C   -2.747907210  -0.467790469  -0.084178755
  O   -3.957585171  -0.374838247   0.066815708
  N   -1.915201904   0.593172422   0.012029300
  H   -0.916601631   0.468475925  -0.119172455
  C   -2.424286048   1.916982401   0.301905746
  H   -2.965712971   1.931342484   1.247837904
  H   -3.111435060   2.255543622  -0.473977557
  H   -1.585490514   2.606473620   0.360074400
  H    3.918243270   0.332777825  -1.914337223
  H    1.469110248   0.702800871  -2.096145663
  C    3.801107180  -0.209456094   0.169155493
  C    3.280896894   0.186938164  -1.054897560
  C    1.912211744   0.394447277  -1.157757341
  N    1.073104897   0.230887879  -0.134712263
  C    1.580258807  -0.150427249   1.038036674
  C    2.934005138  -0.382203534   1.238803479
  H    0.870927905  -0.275704016   1.846592187
  H    3.294259051  -0.690317730   2.209035316
  H    4.861585965  -0.380929563   0.286954802
