19
charge=0 charge_a=0 charge_b=0 selection_a=1-12 selection_b=13-19 scaling=1.5 benchmark_Eint=-2.300 benchmark_unit=kcal/mol group=NH-N
  C   -1.406794039  -1.762606241  -0.415104483
  H   -0.329963292  -1.685191078  -0.550470991
  H   -1.619968542  -2.415390217   0.429840405
  H   -1.846968955  -2.220642788  -1.298852990
  C   -2.079503286  -0.424994223  -0.177253533
  O   -3.285535920  -0.328968972  -0.017161003
  N   -1.255383783   0.650870250  -0.147915340
  H   -0.265688787   0.524185901  -0.287144604
  C   -1.771959306   1.988460300   0.061886409
  H   -2.361215531   2.034930410   0.976598222
  H   -2.415325716   2.298821931  -0.761694941
  H   -0.935067942   2.677804861   0.138362011
  H    3.084699095  -1.694423988   1.908458315
  H    3.386813581  -0.045398470   2.510024500
  H    1.728257930  -0.596888215   2.216989453
  C    2.752818307  -0.656529576   1.867003724
  N    2.750592774  -0.151057348   0.482695413
  N    3.836583836  -0.140123530  -0.089484972
  N    4.778338962  -0.086274009  -0.706584633
