23
charge=0 charge_a=0 charge_b=0 selection_a=1-12 selection_b=13-23 scaling=0.85 benchmark_Eint=-5.518 benchmark_unit=kcal/mol group=NH-N
  C   -2.082770382  -1.795571692  -0.392204543
  H   -2.511617402  -2.195634714  -1.309398136
  H   -1.003286426  -1.717772224  -0.502853894
  H   -2.315105258  -2.496162019   0.408233121
  C   -2.747907210  -0.467790469  -0.084178755
  O   -3.957585171  -0.374838247   0.066815708
  N   -1.915201904   0.593172422   0.012029300
  H   -0.916601631   0.468475925  -0.119172455
  C   -2.424286048   1.916982401   0.301905746
  H   -2.965712971   1.931342484   1.247837904
  H   -3.111435060   2.255543622  -0.473977557
  H   -1.585490514   2.606473620   0.360074400
  H    3.619787291   0.368416032  -1.912006252
  H    1.170654269   0.738439078  -2.093814692
  C    3.502651201  -0.173817887   0.171486464
  C    2.982440915   0.222576371  -1.052566589
  C    1.613755765   0.430085484  -1.155426370
  N    0.774648918   0.266526086  -0.132381292
  C    1.281802828  -0.114789042   1.040367645
  C    2.635549159  -0.346565327   1.241134450
  H    0.572471926  -0.240065809   1.848923158
  H    2.995803072  -0.654679523   2.211366287
  H    4.563129986  -0.345291356   0.289285773
