26
charge=0 charge_a=0 charge_b=0 selection_a=1-12 selection_b=13-26 scaling=1.05 benchmark_Eint=-9.079 benchmark_unit=kcal/mol group=NH-N
  C    1.604751767  -1.393050016  -1.186149947
  H    1.760394030  -2.389143286  -0.774418709
  H    2.078821927  -1.368178832  -2.165724929
  H    0.538072931  -1.208957254  -1.294824905
  C    2.292519227  -0.382798403  -0.287303780
  O    3.496462472  -0.425778644  -0.076753708
  N    1.484769772   0.551972131   0.260385790
  H    0.486994292   0.544932123   0.058306453
  C    2.014066598   1.570676487   1.141621280
  H    2.730422756   2.210415601   0.625064476
  H    1.188567630   2.180069234   1.501985066
  H    2.528360606   1.124978923   1.993044021
  H   -3.997971848  -0.639248582  -1.013444038
  H   -4.281364568  -1.157682010   0.651653607
  H   -4.298561516   0.558393189   0.229223449
  H   -2.256462857  -1.106313634   2.280596542
  H   -2.565221527   0.903154043  -2.108192738
  H   -2.831473286   2.108475237  -0.847739808
  H   -1.277343671   2.032748631  -1.681882919
  H   -1.947115111  -2.280346467   1.018496736
  H   -0.692008760  -1.096594008   1.439520235
  C   -2.328515832  -0.303127099   0.299862425
  N   -1.552452768   0.515544709  -0.285155627
  C   -2.088389121   1.431931823  -1.278499738
  C   -1.760290989  -1.246884408   1.318080918
  C   -3.810715217  -0.397752681   0.034084069
