10
charge=0 charge_a=0 charge_b=0 selection_a=1-4 selection_b=5-10 scaling=1.25 benchmark_Eint=-2.489 benchmark_unit=kcal/mol group=CH-O
  C   -1.632836033   0.195414211  -0.006233081
  H   -0.624803912   0.547640871  -0.013199587
  C   -2.759699298  -0.208009732   0.000603703
  H   -3.759789351  -0.562414637   0.007102688
  O    2.031199310   0.660772770   0.033617938
  H    2.712929130   1.288293355  -0.213657153
  C    2.567609058  -0.658834022   0.003771845
  H    1.753208664  -1.333095874   0.256442337
  H    2.942235610  -0.922459814  -0.987751413
  H    3.366807004  -0.786559011   0.737228537
