14
charge=0 charge_a=0 charge_b=0 selection_a=1-4 selection_b=5-14 scaling=1.0 benchmark_Eint=-3.236 benchmark_unit=kcal/mol group=CH-O
  C   -2.229109262  -0.149979090   0.098014379
  H   -1.188235068  -0.305187736   0.270778929
  C   -3.397176213   0.026862773  -0.092440131
  H   -4.432841078   0.183283933  -0.262308377
  H    2.012986337   1.798748421   0.878169041
  H    1.306584403   2.520098445  -0.595107886
  H    0.237643407   1.924738718   0.698203817
  H    1.220944982  -2.466905678   0.624786397
  H    2.456024628  -1.656683204  -0.379118639
  H    0.807548396  -1.916890141  -1.020036029
  C    1.180432732   1.759918347   0.173857589
  O    1.166637947   0.537741741  -0.534009942
  O    0.970568798  -0.496078950   0.481014504
  C    1.395747286  -1.699115397  -0.126910506
