10
charge=0 charge_a=0 charge_b=0 selection_a=1-4 selection_b=5-10 scaling=0.95 benchmark_Eint=-3.289 benchmark_unit=kcal/mol group=CH-O
  C   -1.632836033   0.195414211  -0.006233081
  H   -0.624803912   0.547640871  -0.013199587
  C   -2.759699298  -0.208009732   0.000603703
  H   -3.759789351  -0.562414637   0.007102688
  O    1.393758537   0.633621114   0.022381732
  H    2.075488356   1.261141699  -0.224893359
  C    1.930168285  -0.685985678  -0.007464361
  H    1.115767890  -1.360247530   0.245206131
  H    2.304794836  -0.949611470  -0.998987619
  H    2.729366231  -0.813710667   0.725992331
