16
charge=0 charge_a=0 charge_b=0 selection_a=1-4 selection_b=5-16 scaling=0.85 benchmark_Eint=-2.512 benchmark_unit=kcal/mol group=CH-O
  C    3.265892556  -0.518486558   0.000000000
  H    2.261027512  -0.878499698   0.000000000
  C    4.385072272  -0.093943248   0.000000000
  H    5.380850367   0.272530187   0.000000000
  H   -2.946001716   0.644625573   0.888831472
  H   -2.946001716   0.644625573  -0.888831472
  H   -3.782498327  -0.652816059   0.000000000
  H    1.279482349   1.380563174  -0.885980644
  H    1.279482349   1.380563174   0.885980644
  H    0.515047103   2.729203658   0.000000000
  O   -1.778256592  -0.838967431   0.000000000
  C   -0.555128202  -0.311387929   0.000000000
  O    0.434461171  -0.993320729   0.000000000
  O   -0.572845594   1.028720255   0.000000000
  C    0.718256091   1.664174583   0.000000000
  C   -2.930884922   0.018731386   0.000000000
