16
charge=0 charge_a=0 charge_b=0 selection_a=1-4 selection_b=5-16 scaling=2.0 benchmark_Eint=-0.678 benchmark_unit=kcal/mol group=CH-O
  C    3.265892556  -0.518486558   0.000000000
  H    2.261027512  -0.878499698   0.000000000
  C    4.385072272  -0.093943248   0.000000000
  H    5.380850367   0.272530187   0.000000000
  H   -5.417238531   0.489279472   0.888831472
  H   -5.417238531   0.489279472  -0.888831472
  H   -6.253735142  -0.808162160   0.000000000
  H   -1.191754466   1.225217073  -0.885980644
  H   -1.191754466   1.225217073   0.885980644
  H   -1.956189712   2.573857557   0.000000000
  O   -4.249493407  -0.994313532   0.000000000
  C   -3.026365017  -0.466734030   0.000000000
  O   -2.036775644  -1.148666830   0.000000000
  O   -3.044082409   0.873374154   0.000000000
  C   -1.752980724   1.508828482   0.000000000
  C   -5.402121737  -0.136614715   0.000000000
