15
charge=0 charge_a=0 charge_b=0 selection_a=1-4 selection_b=5-15 scaling=0.95 benchmark_Eint=-3.790 benchmark_unit=kcal/mol group=CH-O
  C    2.798088279  -0.519124347   0.000000000
  H    1.777330117  -0.831520315   0.000000000
  C    3.936739405  -0.150050545   0.000000000
  H    4.948675257   0.169119376   0.000000000
  H    0.583281644   1.383440877   0.885285969
  H   -0.182337493   2.730977201   0.000000000
  H    0.583281644   1.383440877  -0.885285969
  H   -3.205669688  -0.505012425  -0.877454038
  C   -1.269490109  -0.312959229   0.000000000
  O   -1.270386756   1.028983958   0.000000000
  C    0.019042398   1.665649247   0.000000000
  C   -2.668258477  -0.861478279   0.000000000
  O   -0.262486775  -0.978117151   0.000000000
  H   -2.633843971  -1.945176665   0.000000000
  H   -3.205669688  -0.505012425   0.877454038
