13
charge=0 charge_a=0 charge_b=0 selection_a=1-4 selection_b=5-13 scaling=1.5 benchmark_Eint=-2.104 benchmark_unit=kcal/mol group=CH-O
  C   -2.498540088   0.314138598   0.003107715
  H   -1.507984959   0.715844514   0.067477482
  C   -3.597164489  -0.156447883  -0.071492992
  H   -4.574158592  -0.565069501  -0.136620036
  H    4.296752034  -0.474295044  -0.174274804
  H    4.084157530   1.242708042  -0.135911308
  H    2.572953102  -1.978909404  -0.076290189
  H    1.027302798  -1.329686956  -0.661534600
  H    1.349646094  -1.382099470   1.059932272
  O    1.614488228   1.166628940   0.115237278
  C    2.343722246   0.192921982   0.033120703
  N    3.689029832   0.319079908  -0.104214745
  C    1.809570756  -1.221307008   0.086385949
