15
charge=0 charge_a=0 charge_b=0 selection_a=1-4 selection_b=5-15 scaling=1.25 benchmark_Eint=-2.914 benchmark_unit=kcal/mol group=CH-O
  C    2.798088279  -0.519124347   0.000000000
  H    1.777330117  -0.831520315   0.000000000
  C    3.936739405  -0.150050545   0.000000000
  H    4.948675257   0.169119376   0.000000000
  H   -0.060871059   1.337147139   0.885285969
  H   -0.826490196   2.684683463   0.000000000
  H   -0.060871059   1.337147139  -0.885285969
  H   -3.849822391  -0.551306163  -0.877454038
  C   -1.913642812  -0.359252967   0.000000000
  O   -1.914539459   0.982690220   0.000000000
  C   -0.625110305   1.619355509   0.000000000
  C   -3.312411180  -0.907772017   0.000000000
  O   -0.906639478  -1.024410889   0.000000000
  H   -3.277996674  -1.991470403   0.000000000
  H   -3.849822391  -0.551306163   0.877454038
