11
charge=0 charge_a=0 charge_b=0 selection_a=1-4 selection_b=5-11 scaling=1.0 benchmark_Eint=-3.355 benchmark_unit=kcal/mol group=CH-O
  C   -2.011548349   0.283130903  -0.000000131
  H   -1.057741761   0.762468607  -0.000000367
  C   -3.070459929  -0.274876730   0.000000058
  H   -4.013236394  -0.761855986   0.000000226
  H    1.940821318  -1.758125761   0.875108408
  H    1.940821279  -1.758126074  -0.875108172
  H    0.427130498  -1.393607536   0.000000104
  H    2.985734307   0.372943524  -0.000000415
  C    1.506149660  -1.269746698   0.000000037
  C    1.895294274   0.176459777  -0.000000126
  O    1.121515189   1.100311531   0.000000134
