13
charge=0 charge_a=0 charge_b=0 selection_a=1-4 selection_b=5-13 scaling=1.1 benchmark_Eint=-3.264 benchmark_unit=kcal/mol group=CH-O
  C    1.985749423   0.000000000   0.166495686
  H    0.952555545   0.000000000   0.440031524
  C    3.139871445   0.000000000  -0.150791985
  H    4.164122207   0.000000000  -0.428111631
  H   -1.441295158   2.022108279   0.374257525
  H   -1.340533925   1.229461515  -1.214214249
  H   -2.875310823   1.225955717  -0.312723860
  H   -1.441295158  -2.022108279   0.374257525
  H   -1.340533925  -1.229461515  -1.214214249
  H   -2.875310823  -1.225955717  -0.312723860
  C   -1.785955704   1.176345037  -0.214982284
  O   -1.388804331   0.000000000   0.460941380
  C   -1.785955704  -1.176345037  -0.214982284
