11
charge=0 charge_a=0 charge_b=0 selection_a=1-4 selection_b=5-11 scaling=1.25 benchmark_Eint=-2.493 benchmark_unit=kcal/mol group=CH-O
  C   -2.011548349   0.283130903  -0.000000131
  H   -1.057741761   0.762468607  -0.000000367
  C   -3.070459929  -0.274876730   0.000000058
  H   -4.013236394  -0.761855986   0.000000226
  H    2.485635556  -1.673665030   0.875108533
  H    2.485635516  -1.673665343  -0.875108047
  H    0.971944736  -1.309146805   0.000000229
  H    3.530548544   0.457404255  -0.000000290
  C    2.050963898  -1.185285967   0.000000162
  C    2.440108512   0.260920508  -0.000000001
  O    1.666329426   1.184772262   0.000000259
