14
charge=0 charge_a=0 charge_b=0 selection_a=1-4 selection_b=5-14 scaling=1.0 benchmark_Eint=-3.693 benchmark_unit=kcal/mol group=CH-O
  C   -2.578045314  -0.315324422   0.001040101
  H   -1.585578464  -0.711515737   0.013010192
  C   -3.681058278   0.149785146  -0.012768902
  H   -4.661770099   0.554637596  -0.024859107
  H    1.298954532   1.938539784  -0.833116536
  H   -0.215605525   1.449410104  -0.032827700
  H    1.220743807   1.893432440   0.915991509
  H    3.055234049  -1.320155237   0.032881542
  H    3.250161444   0.158087262  -0.938386789
  C    0.867624942   1.397275244   0.010133635
  C    1.337360995  -0.038083409   0.003609125
  O    0.561233694  -0.967641847   0.018062314
  C    2.830877968  -0.259428816  -0.021216171
  H    3.305422360   0.265005776   0.809412404
