13
charge=0 charge_a=0 charge_b=0 selection_a=1-4 selection_b=5-13 scaling=1.05 benchmark_Eint=-4.445 benchmark_unit=kcal/mol group=CH-O
  C   -2.498540088   0.314138598   0.003107715
  H   -1.507984959   0.715844514   0.067477482
  C   -3.597164489  -0.156447883  -0.071492992
  H   -4.574158592  -0.565069501  -0.136620036
  H    3.360010079  -0.609530371  -0.188602743
  H    3.147415574   1.107472714  -0.150239247
  H    1.636211147  -2.114144732  -0.090618128
  H    0.090560843  -1.464922283  -0.675862539
  H    0.412904139  -1.517334798   1.045604333
  O    0.677746272   1.031393613   0.100909339
  C    1.406980290   0.057686655   0.018792764
  N    2.752287876   0.183844581  -0.118542684
  C    0.872828800  -1.356542335   0.072058010
