14
charge=0 charge_a=0 charge_b=0 selection_a=1-4 selection_b=5-14 scaling=1.25 benchmark_Eint=-2.291 benchmark_unit=kcal/mol group=CH-O
  C   -2.229109262  -0.149979090   0.098014379
  H   -1.188235068  -0.305187736   0.270778929
  C   -3.397176213   0.026862773  -0.092440131
  H   -4.432841078   0.183283933  -0.262308377
  H    2.552687304   1.751025618   0.930727935
  H    1.846285370   2.472375642  -0.542548992
  H    0.777344374   1.877015914   0.750762711
  H    1.760645948  -2.514628482   0.677345291
  H    2.995725594  -1.704406008  -0.326559745
  H    1.347249362  -1.964612944  -0.967477135
  C    1.720133698   1.712195544   0.226416483
  O    1.706338914   0.490018938  -0.481451048
  O    1.510269764  -0.543801754   0.533573398
  C    1.935448252  -1.746838200  -0.074351612
