11
charge=0 charge_a=0 charge_b=0 selection_a=1-4 selection_b=5-11 scaling=1.1 benchmark_Eint=-3.172 benchmark_unit=kcal/mol group=CH-O
  C   -2.011548349   0.283130903  -0.000000131
  H   -1.057741761   0.762468607  -0.000000367
  C   -3.070459929  -0.274876730   0.000000058
  H   -4.013236394  -0.761855986   0.000000226
  H    2.158747013  -1.724341469   0.875108458
  H    2.158746974  -1.724341782  -0.875108122
  H    0.645056193  -1.359823244   0.000000154
  H    3.203660002   0.406727816  -0.000000365
  C    1.724075355  -1.235962406   0.000000087
  C    2.113219969   0.210244069  -0.000000076
  O    1.339440884   1.134095823   0.000000184
