13
charge=0 charge_a=0 charge_b=0 selection_a=1-4 selection_b=5-13 scaling=0.9 benchmark_Eint=-3.802 benchmark_unit=kcal/mol group=CH-O
  C   -2.498540088   0.314138598   0.003107715
  H   -1.507984959   0.715844514   0.067477482
  C   -3.597164489  -0.156447883  -0.071492992
  H   -4.574158592  -0.565069501  -0.136620036
  H    3.047762760  -0.654608814  -0.193378722
  H    2.835168255   1.062394271  -0.155015226
  H    1.323963828  -2.159223175  -0.095394107
  H   -0.221686476  -1.510000726  -0.680638518
  H    0.100656820  -1.562413241   1.040828354
  O    0.365498953   0.986315170   0.096133360
  C    1.094732971   0.012608212   0.014016785
  N    2.440040557   0.138766138  -0.123318663
  C    0.560581481  -1.401620778   0.067282031
