13
charge=0 charge_a=0 charge_b=0 selection_a=1-4 selection_b=5-13 scaling=2.0 benchmark_Eint=-0.817 benchmark_unit=kcal/mol group=CH-O
  C   -2.498540088   0.314138598   0.003107715
  H   -1.507984959   0.715844514   0.067477482
  C   -3.597164489  -0.156447883  -0.071492992
  H   -4.574158592  -0.565069501  -0.136620036
  H    5.337576430  -0.324033568  -0.158354872
  H    5.124981925   1.392969517  -0.119991376
  H    3.613777498  -1.828647929  -0.060370257
  H    2.068127194  -1.179425480  -0.645614668
  H    2.390470490  -1.231837995   1.075852204
  O    2.655312623   1.316890416   0.131157210
  C    3.384546641   0.343183458   0.049040635
  N    4.729854227   0.469341384  -0.088294813
  C    2.850395151  -1.071045532   0.102305881
