13
charge=0 charge_a=0 charge_b=0 selection_a=1-4 selection_b=5-13 scaling=1.5 benchmark_Eint=-1.451 benchmark_unit=kcal/mol group=CH-O
  C    1.985749423   0.000000000   0.166495686
  H    0.952555545   0.000000000   0.440031524
  C    3.139871445   0.000000000  -0.150791985
  H    4.164122207   0.000000000  -0.428111631
  H   -2.292698749   2.022108279   0.381861109
  H   -2.191937516   1.229461515  -1.206610665
  H   -3.726714414   1.225955717  -0.305120276
  H   -2.292698749  -2.022108279   0.381861109
  H   -2.191937516  -1.229461515  -1.206610665
  H   -3.726714414  -1.225955717  -0.305120276
  C   -2.637359295   1.176345037  -0.207378700
  O   -2.240207922   0.000000000   0.468544964
  C   -2.637359295  -1.176345037  -0.207378700
