16
charge=0 charge_a=0 charge_b=0 selection_a=1-4 selection_b=5-16 scaling=1.05 benchmark_Eint=-4.045 benchmark_unit=kcal/mol group=CH-O
  C    3.265892556  -0.518486558   0.000000000
  H    2.261027512  -0.878499698   0.000000000
  C    4.385072272  -0.093943248   0.000000000
  H    5.380850367   0.272530187   0.000000000
  H   -3.375782032   0.617608860   0.888831472
  H   -3.375782032   0.617608860  -0.888831472
  H   -4.212278643  -0.679832772   0.000000000
  H    0.849702033   1.353546461  -0.885980644
  H    0.849702033   1.353546461   0.885980644
  H    0.085266787   2.702186945   0.000000000
  O   -2.208036908  -0.865984144   0.000000000
  C   -0.984908518  -0.338404642   0.000000000
  O    0.004680855  -1.020337442   0.000000000
  O   -1.002625910   1.001703542   0.000000000
  C    0.288475775   1.637157870   0.000000000
  C   -3.360665238  -0.008285327   0.000000000
