11
charge=0 charge_a=0 charge_b=0 selection_a=1-4 selection_b=5-11 scaling=1.25 benchmark_Eint=-2.170 benchmark_unit=kcal/mol group=CH-O
  C   -2.432906253   0.473582602   0.004130564
  H   -1.646241222   1.139001924  -0.261552120
  C   -3.297939682  -0.296063444   0.305259780
  H   -4.075023714  -0.967467081   0.573562013
  H    0.221424986  -1.276252160  -0.177500301
  H    1.830224886  -2.083343426  -0.118674792
  H    1.258265391  -1.266593835  -1.615901672
  C    1.248568241  -1.269663859  -0.530721152
  N    1.860114859   0.019236670  -0.080903114
  O    1.336223469   1.045532480  -0.485094220
  O    2.827783183  -0.033186532   0.652306339
