17
charge=0 charge_a=0 charge_b=0 selection_a=1-4 selection_b=5-17 scaling=0.95 benchmark_Eint=-2.679 benchmark_unit=kcal/mol group=CH-O
  C    3.497263390   0.005071102  -0.164648372
  H    2.646866729  -0.618005884  -0.010424745
  C    4.447006683   0.712526927  -0.335172122
  H    5.290114219   1.338597158  -0.487362299
  H    0.836771095   1.054552905   0.795428881
  H   -3.229572502   1.837690904  -0.334693679
  H   -1.031893811   2.644148744   0.473877063
  H   -1.677039718  -2.153561496  -0.500873843
  H    0.506482112  -2.378416130   0.145965973
  H   -3.541726612  -0.570845538  -0.819590872
  C   -2.413761289   1.144232430  -0.194110323
  C   -1.178979776   1.595047993   0.260106329
  C   -0.125224814   0.712080184   0.444441487
  C   -0.310888689  -0.637959600   0.168474989
  C   -1.540089481  -1.100893719  -0.287098780
  C   -2.587871696  -0.206250898  -0.465806693
  O    0.757181105  -1.476401968   0.361949726
