23
charge=0 charge_a=0 charge_b=0 selection_a=1-11 selection_b=12-23 scaling=0.8 benchmark_Eint=-1.752 benchmark_unit=kcal/mol group=CH-O
  H   -0.718810902   1.644865477  -1.222594505
  H   -1.861135815   2.713198083  -0.358985586
  H   -2.456273632   1.510605486  -1.536671765
  H   -0.774435455  -1.435173593   1.674210342
  C   -1.664375147  -0.492027940   0.024339196
  O   -1.833684019   0.814037428   0.322930056
  C   -1.707672625   1.723940281  -0.776952443
  C   -1.772482709  -1.359142143   1.241090656
  O   -1.427246749  -0.877634011  -1.093603962
  H   -2.445209083  -0.929148866   1.977685288
  H   -2.101908012  -2.351285493   0.948151523
  C    1.453572748  -1.513435300  -1.075941334
  H    1.955316128  -1.051199218  -1.924522355
  H    2.021008271  -2.379326323  -0.745359138
  H    0.466414877  -1.848526407  -1.392545177
  C    1.270010498  -0.573712186   0.091475574
  O    0.988735608  -0.969044266   1.212801388
  N    1.396346184   0.750779365  -0.179836225
  H    1.662617529   1.035692744  -1.103419666
  C    1.203608690   1.756443642   0.848047162
  H    1.956955270   1.669562141   1.630595444
  H    0.224743722   1.644045322   1.310656688
  H    1.274402118   2.741126026   0.393777996
