11
charge=0 charge_a=0 charge_b=0 selection_a=1-4 selection_b=5-11 scaling=1.0 benchmark_Eint=-3.094 benchmark_unit=kcal/mol group=CH-O
  C   -2.432906253   0.473582602   0.004130564
  H   -1.646241222   1.139001924  -0.261552120
  C   -3.297939682  -0.296063444   0.305259780
  H   -4.075023714  -0.967467081   0.573562013
  H   -0.375067952  -1.257558271  -0.132791881
  H    1.233731948  -2.064649537  -0.073966372
  H    0.661772453  -1.247899946  -1.571193252
  C    0.652075303  -1.250969970  -0.486012732
  N    1.263621921   0.037930559  -0.036194694
  O    0.739730531   1.064226369  -0.440385800
  O    2.231290245  -0.014492643   0.697014759
