18
charge=0 charge_a=0 charge_b=0 selection_a=1-6 selection_b=7-18 scaling=1.25 benchmark_Eint=-5.322 benchmark_unit=kcal/mol group=CH-O
  H   -3.104228385  -1.023256450   0.982023732
  H   -2.952075429   0.710914775   1.318782870
  H   -1.543737786  -0.361101353   1.533433532
  C   -1.672033873   0.242078546  -1.494032179
  N   -2.039485439   0.059868720  -0.406890303
  C   -2.434153021  -0.167365148   0.939332834
  C    1.941345643  -1.779226136  -0.720583828
  H    2.370375901  -2.554963584  -0.091848400
  H    0.975001437  -2.130585940  -1.080994469
  H    2.587715783  -1.605430968  -1.578542032
  C    1.714066134  -0.540541260   0.115509979
  O    1.256129358  -0.602325070   1.248376306
  N    2.043750887   0.635837682  -0.472990250
  H    2.249407038   0.621652114  -1.455686100
  C    1.718481323   1.911495524   0.133175438
  H    1.852828082   1.833292758   1.207689453
  H    0.684989293   2.200675648  -0.067761222
  H    2.383520940   2.678010714  -0.257186420
