18
charge=0 charge_a=0 charge_b=0 selection_a=1-6 selection_b=7-18 scaling=0.95 benchmark_Eint=-5.751 benchmark_unit=kcal/mol group=CH-O
  H   -1.625251837  -0.166140828   1.642542880
  H   -2.639643952  -1.259606220   0.643247897
  H   -3.295590451   0.304339857   1.285677232
  C   -2.424056603  -0.223804707   0.900192438
  N   -1.929311976   0.531322121  -0.260080785
  O   -1.670524621  -0.144407542  -1.219698352
  C    1.310526370  -1.777520366  -0.519074338
  H    0.343247425  -2.139498564  -0.866944854
  H    1.715482147  -2.511570423   0.172605624
  H    1.974761332  -1.679484882  -1.375729376
  C    1.090955117  -0.476631955   0.219968758
  O    0.602234779  -0.444247235   1.340471618
  N    1.451676132   0.649745189  -0.441556347
  H    1.729798211   0.568694423  -1.402154440
  C    1.163886225   1.970354132   0.087641312
  H    1.448904352   2.009053981   1.135648842
  H    1.739299752   2.706888967  -0.467067777
  H    0.102073040   2.208768559   0.011310437
