18
charge=0 charge_a=0 charge_b=0 selection_a=1-6 selection_b=7-18 scaling=0.85 benchmark_Eint=-3.955 benchmark_unit=kcal/mol group=CH-O
  H   -1.625251837  -0.166140828   1.642542880
  H   -2.639643952  -1.259606220   0.643247897
  H   -3.295590451   0.304339857   1.285677232
  C   -2.424056603  -0.223804707   0.900192438
  N   -1.929311976   0.531322121  -0.260080785
  O   -1.670524621  -0.144407542  -1.219698352
  C    1.076054095  -1.748246007  -0.487277363
  H    0.108775150  -2.110224205  -0.835147879
  H    1.481009872  -2.482296064   0.204402599
  H    1.740289057  -1.650210523  -1.343932401
  C    0.856482842  -0.447357596   0.251765733
  O    0.367762504  -0.414972876   1.372268593
  N    1.217203857   0.679019548  -0.409759372
  H    1.495325936   0.597968782  -1.370357465
  C    0.929413950   1.999628491   0.119438287
  H    1.214432077   2.038328340   1.167445817
  H    1.504827477   2.736163326  -0.435270802
  H   -0.132399235   2.238042918   0.043107412
