18
charge=0 charge_a=0 charge_b=0 selection_a=1-6 selection_b=7-18 scaling=2.0 benchmark_Eint=-1.501 benchmark_unit=kcal/mol group=CH-O
  H   -3.104228385  -1.023256450   0.982023732
  H   -2.952075429   0.710914775   1.318782870
  H   -1.543737786  -0.361101353   1.533433532
  C   -1.672033873   0.242078546  -1.494032179
  N   -2.039485439   0.059868720  -0.406890303
  C   -2.434153021  -0.167365148   0.939332834
  C    3.621265929  -1.923960366  -0.891618164
  H    4.050296187  -2.699697815  -0.262882736
  H    2.654921723  -2.275320170  -1.252028805
  H    4.267636069  -1.750165199  -1.749576368
  C    3.393986420  -0.685275491  -0.055524357
  O    2.936049644  -0.747059301   1.077341970
  N    3.723671173   0.491103451  -0.644024586
  H    3.929327324   0.476917884  -1.626720436
  C    3.398401609   1.766761294  -0.037858898
  H    3.532748368   1.688558528   1.036655117
  H    2.364909579   2.055941417  -0.238795558
  H    4.063441226   2.533276483  -0.428220756
