7
charge=0 charge_a=0 charge_b=0 selection_a=1-4 selection_b=5-7 scaling=1.0 benchmark_Eint=-2.848 benchmark_unit=kcal/mol group=CH-O
  C   -0.998102419   0.000000000   0.027389486
  H    0.068468561   0.000000000   0.068057451
  C   -2.193935042   0.000000000  -0.021744174
  H   -3.254139240   0.000000000  -0.063600906
  O    2.254394342   0.000000000   0.035184770
  H    2.718719565  -0.764245022  -0.315113640
  H    2.718719565   0.764245022  -0.315113640
