23
charge=0 charge_a=0 charge_b=0 selection_a=1-11 selection_b=12-23 scaling=2.0 benchmark_Eint=-0.733 benchmark_unit=kcal/mol group=CH-O
  H   -0.718810902   1.644865477  -1.222594505
  H   -1.861135815   2.713198083  -0.358985586
  H   -2.456273632   1.510605486  -1.536671765
  H   -0.774435455  -1.435173593   1.674210342
  C   -1.664375147  -0.492027940   0.024339196
  O   -1.833684019   0.814037428   0.322930056
  C   -1.707672625   1.723940281  -0.776952443
  C   -1.772482709  -1.359142143   1.241090656
  O   -1.427246749  -0.877634011  -1.093603962
  H   -2.445209083  -0.929148866   1.977685288
  H   -2.101908012  -2.351285493   0.948151523
  C    4.098329343  -0.814241309  -1.768054766
  H    4.600072723  -0.352005227  -2.616635787
  H    4.665764866  -1.680132332  -1.437472570
  H    3.111171472  -1.149332416  -2.084658609
  C    3.914767093   0.125481805  -0.600637858
  O    3.633492203  -0.269850275   0.520687956
  N    4.041102779   1.449973356  -0.871949657
  H    4.307374124   1.734886735  -1.795533098
  C    3.848365285   2.455637633   0.155933730
  H    4.601711865   2.368756132   0.938482012
  H    2.869500317   2.343239313   0.618543256
  H    3.919158713   3.440320017  -0.298335436
