16
charge=0 charge_a=0 charge_b=0 selection_a=1-4 selection_b=5-16 scaling=0.85 benchmark_Eint=-2.921 benchmark_unit=kcal/mol group=CH-O
  C   -2.942257651  -0.471523277  -0.001467712
  H   -1.902980775  -0.723094487  -0.069449718
  C   -4.098370664  -0.169020571   0.076821865
  H   -5.124749270   0.090823236   0.145323115
  C   -0.219486617   1.625353716  -0.024269760
  H   -0.781454326   1.727108680  -0.950780225
  H    0.455658950   2.472600014   0.078444642
  H   -0.938959999   1.639455460   0.791947058
  C    0.487358860   0.287966272  -0.028990543
  O   -0.129794265  -0.764132666  -0.115411329
  N    1.840149028   0.335118938   0.066305357
  H    2.279138680   1.234931272   0.133283264
  C    2.675218173  -0.850060732   0.073953256
  H    2.023260342  -1.714776384   0.004286039
  H    3.359823680  -0.852318526  -0.774296044
  H    3.253700304  -0.914255294   0.995481046
