19
charge=0 charge_a=0 charge_b=0 selection_a=1-7 selection_b=8-19 scaling=0.85 benchmark_Eint=-6.291 benchmark_unit=kcal/mol group=CH-O
  H   -2.739221841   0.427721197   1.612838101
  H   -1.220984938  -0.527317162   1.672015546
  H   -2.724413095  -1.300672674   1.088691582
  C   -2.169041280  -0.373288077   1.159951750
  N   -1.799338860   0.045908601  -0.223310995
  O   -1.536573810  -0.835607230  -1.024143944
  O   -1.744980080   1.240503355  -0.458371814
  C    1.390814116  -1.804845463  -0.470049122
  H    1.835356504  -2.512482890   0.225527819
  H    0.427821607  -2.201954137  -0.788129242
  H    2.033886329  -1.700934608  -1.341845580
  C    1.144506240  -0.500796490   0.251863600
  O    0.613401724  -0.465544124   1.355599825
  N    1.533937683   0.621592794  -0.395389634
  H    1.866843612   0.534651127  -1.337906681
  C    1.267430727   1.949986044   0.126792075
  H    1.419473962   1.944672138   1.202370297
  H    0.242815913   2.262288779  -0.075869200
  H    1.956476728   2.656479402  -0.329163044
