18
charge=0 charge_a=0 charge_b=0 selection_a=1-6 selection_b=7-18 scaling=1.05 benchmark_Eint=-5.691 benchmark_unit=kcal/mol group=CH-O
  H   -1.625251837  -0.166140828   1.642542880
  H   -2.639643952  -1.259606220   0.643247897
  H   -3.295590451   0.304339857   1.285677232
  C   -2.424056603  -0.223804707   0.900192438
  N   -1.929311976   0.531322121  -0.260080785
  O   -1.670524621  -0.144407542  -1.219698352
  C    1.544998646  -1.806794724  -0.550871312
  H    0.577719701  -2.168772922  -0.898741828
  H    1.949954423  -2.540844781   0.140808650
  H    2.209233608  -1.708759240  -1.407526350
  C    1.325427393  -0.505906313   0.188171784
  O    0.836707055  -0.473521593   1.308674644
  N    1.686148408   0.620470831  -0.473353321
  H    1.964270487   0.539420065  -1.433951414
  C    1.398358501   1.941079774   0.055844338
  H    1.683376628   1.979779623   1.103851868
  H    1.973772028   2.677614609  -0.498864751
  H    0.336545316   2.179494201  -0.020486537
