17
charge=0 charge_a=0 charge_b=0 selection_a=1-4 selection_b=5-17 scaling=0.8 benchmark_Eint=-0.028 benchmark_unit=kcal/mol group=CH-O
  C    3.497263390   0.005071102  -0.164648372
  H    2.646866729  -0.618005884  -0.010424745
  C    4.447006683   0.712526927  -0.335172122
  H    5.290114219   1.338597158  -0.487362299
  H    1.135142509   1.190089129   0.736632912
  H   -2.931201088   1.973227128  -0.393489648
  H   -0.733522397   2.779684968   0.415081094
  H   -1.378668304  -2.018025272  -0.559669812
  H    0.804853526  -2.242879906   0.087170004
  H   -3.243355198  -0.435309314  -0.878386841
  C   -2.115389875   1.279768654  -0.252906292
  C   -0.880608362   1.730584217   0.201310360
  C    0.173146600   0.847616408   0.385645518
  C   -0.012517275  -0.502423376   0.109679020
  C   -1.241718067  -0.965357495  -0.345894749
  C   -2.289500282  -0.070714674  -0.524602662
  O    1.055552519  -1.340865744   0.303153757
