16
charge=0 charge_a=0 charge_b=0 selection_a=1-4 selection_b=5-16 scaling=0.9 benchmark_Eint=-3.980 benchmark_unit=kcal/mol group=CH-O
  C   -2.942257651  -0.471523277  -0.001467712
  H   -1.902980775  -0.723094487  -0.069449718
  C   -4.098370664  -0.169020571   0.076821865
  H   -5.124749270   0.090823236   0.145323115
  C   -0.115181529   1.622939706  -0.026973385
  H   -0.677149238   1.724694669  -0.953483850
  H    0.559964038   2.470186004   0.075741017
  H   -0.834654911   1.637041449   0.789243433
  C    0.591663948   0.285552262  -0.031694168
  O   -0.025489177  -0.766546676  -0.118114954
  N    1.944454116   0.332704928   0.063601732
  H    2.383443768   1.232517262   0.130579639
  C    2.779523261  -0.852474743   0.071249631
  H    2.127565430  -1.717190395   0.001582414
  H    3.464128768  -0.854732537  -0.776999669
  H    3.358005392  -0.916669305   0.992777421
