16
charge=0 charge_a=0 charge_b=0 selection_a=1-4 selection_b=5-16 scaling=1.0 benchmark_Eint=-4.681 benchmark_unit=kcal/mol group=CH-O
  C   -2.942257651  -0.471523277  -0.001467712
  H   -1.902980775  -0.723094487  -0.069449718
  C   -4.098370664  -0.169020571   0.076821865
  H   -5.124749270   0.090823236   0.145323115
  C    0.093428649   1.618111685  -0.032380633
  H   -0.468539060   1.719866648  -0.958891098
  H    0.768574216   2.465357983   0.070333769
  H   -0.626044733   1.632213428   0.783836185
  C    0.800274126   0.280724241  -0.037101416
  O    0.183121001  -0.771374697  -0.123522202
  N    2.153064294   0.327876907   0.058194484
  H    2.592053946   1.227689241   0.125172391
  C    2.988133439  -0.857302764   0.065842383
  H    2.336175608  -1.722018416  -0.003824834
  H    3.672738946  -0.859560558  -0.782406917
  H    3.566615570  -0.921497326   0.987370173
