23
charge=0 charge_a=0 charge_b=0 selection_a=1-11 selection_b=12-23 scaling=1.05 benchmark_Eint=-6.167 benchmark_unit=kcal/mol group=CH-O
  H   -0.718810902   1.644865477  -1.222594505
  H   -1.861135815   2.713198083  -0.358985586
  H   -2.456273632   1.510605486  -1.536671765
  H   -0.774435455  -1.435173593   1.674210342
  C   -1.664375147  -0.492027940   0.024339196
  O   -1.833684019   0.814037428   0.322930056
  C   -1.707672625   1.723940281  -0.776952443
  C   -1.772482709  -1.359142143   1.241090656
  O   -1.427246749  -0.877634011  -1.093603962
  H   -2.445209083  -0.929148866   1.977685288
  H   -2.101908012  -2.351285493   0.948151523
  C    2.004563705  -1.367769885  -1.220131633
  H    2.506307085  -0.905533803  -2.068712654
  H    2.571999228  -2.233660908  -0.889549437
  H    1.017405834  -1.702860992  -1.536735476
  C    1.821001455  -0.428046771  -0.052714725
  O    1.539726565  -0.823378851   1.068611089
  N    1.947337141   0.896444780  -0.324026524
  H    2.213608486   1.181358159  -1.247609965
  C    1.754599647   1.902109057   0.703856863
  H    2.507946227   1.815227556   1.486405145
  H    0.775734679   1.789710737   1.166466389
  H    1.825393075   2.886791441   0.249587697
