18
charge=0 charge_a=0 charge_b=0 selection_a=1-6 selection_b=7-18 scaling=0.8 benchmark_Eint=-2.699 benchmark_unit=kcal/mol group=CH-O
  H   -3.104228385  -1.023256450   0.982023732
  H   -2.952075429   0.710914775   1.318782870
  H   -1.543737786  -0.361101353   1.533433532
  C   -1.672033873   0.242078546  -1.494032179
  N   -2.039485439   0.059868720  -0.406890303
  C   -2.434153021  -0.167365148   0.939332834
  C    0.933393471  -1.692385597  -0.617963227
  H    1.362423729  -2.468123046   0.010772201
  H   -0.032950735  -2.043745401  -0.978373868
  H    1.579763611  -1.518590430  -1.475921431
  C    0.706113962  -0.453700722   0.218130580
  O    0.248177186  -0.515484532   1.350996907
  N    1.035798715   0.722678220  -0.370369649
  H    1.241454866   0.708492653  -1.353065499
  C    0.710529151   1.998336063   0.235796039
  H    0.844875910   1.920133297   1.310310054
  H   -0.322962879   2.287516186   0.034859379
  H    1.375568768   2.764851252  -0.154565819
