19
charge=0 charge_a=0 charge_b=0 selection_a=1-7 selection_b=8-19 scaling=0.8 benchmark_Eint=-3.657 benchmark_unit=kcal/mol group=CH-O
  H   -2.739221841   0.427721197   1.612838101
  H   -1.220984938  -0.527317162   1.672015546
  H   -2.724413095  -1.300672674   1.088691582
  C   -2.169041280  -0.373288077   1.159951750
  N   -1.799338860   0.045908601  -0.223310995
  O   -1.536573810  -0.835607230  -1.024143944
  O   -1.744980080   1.240503355  -0.458371814
  C    1.282909018  -1.808479171  -0.451436432
  H    1.727451406  -2.516116598   0.244140509
  H    0.319916509  -2.205587845  -0.769516552
  H    1.925981231  -1.704568316  -1.323232890
  C    1.036601142  -0.504430198   0.270476290
  O    0.505496626  -0.469177832   1.374212515
  N    1.426032585   0.617959086  -0.376776944
  H    1.758938514   0.531017419  -1.319293991
  C    1.159525629   1.946352336   0.145404765
  H    1.311568864   1.941038430   1.220982987
  H    0.134910815   2.258655071  -0.057256510
  H    1.848571630   2.652845694  -0.310550354
