11
charge=0 charge_a=0 charge_b=0 selection_a=1-4 selection_b=5-11 scaling=1.1 benchmark_Eint=-2.864 benchmark_unit=kcal/mol group=CH-O
  C   -2.432906253   0.473582602   0.004130564
  H   -1.646241222   1.139001924  -0.261552120
  C   -3.297939682  -0.296063444   0.305259780
  H   -4.075023714  -0.967467081   0.573562013
  H   -0.136470777  -1.265035826  -0.150675249
  H    1.472329123  -2.072127092  -0.091849740
  H    0.900369628  -1.255377502  -1.589076620
  C    0.890672478  -1.258447526  -0.503896100
  N    1.502219096   0.030453004  -0.054078062
  O    0.978327706   1.056748814  -0.458269168
  O    2.469887420  -0.021970198   0.679131391
