23
charge=0 charge_a=0 charge_b=0 selection_a=1-11 selection_b=12-23 scaling=0.85 benchmark_Eint=-4.266 benchmark_unit=kcal/mol group=CH-O
  H   -0.718810902   1.644865477  -1.222594505
  H   -1.861135815   2.713198083  -0.358985586
  H   -2.456273632   1.510605486  -1.536671765
  H   -0.774435455  -1.435173593   1.674210342
  C   -1.664375147  -0.492027940   0.024339196
  O   -1.833684019   0.814037428   0.322930056
  C   -1.707672625   1.723940281  -0.776952443
  C   -1.772482709  -1.359142143   1.241090656
  O   -1.427246749  -0.877634011  -1.093603962
  H   -2.445209083  -0.929148866   1.977685288
  H   -2.101908012  -2.351285493   0.948151523
  C    1.563770940  -1.484302217  -1.104779394
  H    2.065514320  -1.022066135  -1.953360415
  H    2.131206463  -2.350193240  -0.774197198
  H    0.576613069  -1.819393324  -1.421383237
  C    1.380208690  -0.544579103   0.062637514
  O    1.098933800  -0.939911183   1.183963328
  N    1.506544376   0.779912448  -0.208674285
  H    1.772815721   1.064825827  -1.132257726
  C    1.313806882   1.785576725   0.819209102
  H    2.067153462   1.698695224   1.601757384
  H    0.334941914   1.673178405   1.281818628
  H    1.384600310   2.770259109   0.364939936
