18
charge=0 charge_a=0 charge_b=0 selection_a=1-6 selection_b=7-18 scaling=1.0 benchmark_Eint=-7.069 benchmark_unit=kcal/mol group=CH-O
  H   -3.104228385  -1.023256450   0.982023732
  H   -2.952075429   0.710914775   1.318782870
  H   -1.543737786  -0.361101353   1.533433532
  C   -1.672033873   0.242078546  -1.494032179
  N   -2.039485439   0.059868720  -0.406890303
  C   -2.434153021  -0.167365148   0.939332834
  C    1.381372214  -1.730981392  -0.663572383
  H    1.810402472  -2.506718841  -0.034836955
  H    0.415028008  -2.082341196  -1.023983024
  H    2.027742354  -1.557186225  -1.521530587
  C    1.154092705  -0.492296517   0.172521424
  O    0.696155929  -0.554080327   1.305387751
  N    1.483777458   0.684082425  -0.415978805
  H    1.689433609   0.669896858  -1.398674655
  C    1.158507894   1.959740268   0.190186883
  H    1.292854653   1.881537502   1.264700898
  H    0.125015864   2.248920391  -0.010749777
  H    1.823547511   2.726255457  -0.200174975
