17
charge=0 charge_a=0 charge_b=0 selection_a=1-4 selection_b=5-17 scaling=0.85 benchmark_Eint=-1.485 benchmark_unit=kcal/mol group=CH-O
  C    3.497263390   0.005071102  -0.164648372
  H    2.646866729  -0.618005884  -0.010424745
  C    4.447006683   0.712526927  -0.335172122
  H    5.290114219   1.338597158  -0.487362299
  H    1.035685371   1.144910388   0.756231568
  H   -3.030658226   1.928048387  -0.373890992
  H   -0.832979535   2.734506227   0.434679750
  H   -1.478125442  -2.063204013  -0.540071156
  H    0.705396388  -2.288058647   0.106768660
  H   -3.342812336  -0.480488055  -0.858788185
  C   -2.214847013   1.234589913  -0.233307636
  C   -0.980065500   1.685405476   0.220909016
  C    0.073689462   0.802437667   0.405244174
  C   -0.111974413  -0.547602117   0.129277676
  C   -1.341175205  -1.010536236  -0.326296093
  C   -2.388957420  -0.115893415  -0.505004006
  O    0.956095381  -1.386044485   0.322752413
