11
charge=0 charge_a=0 charge_b=0 selection_a=1-4 selection_b=5-11 scaling=0.85 benchmark_Eint=-1.652 benchmark_unit=kcal/mol group=CH-O
  C   -2.432906253   0.473582602   0.004130564
  H   -1.646241222   1.139001924  -0.261552120
  C   -3.297939682  -0.296063444   0.305259780
  H   -4.075023714  -0.967467081   0.573562013
  H   -0.732963715  -1.246341938  -0.105966829
  H    0.875836185  -2.053433204  -0.047141320
  H    0.303876690  -1.236683613  -1.544368200
  C    0.294179540  -1.239753637  -0.459187680
  N    0.905726158   0.049146892  -0.009369642
  O    0.381834768   1.075442702  -0.413560748
  O    1.873394482  -0.003276310   0.723839811
