18
charge=0 charge_a=0 charge_b=0 selection_a=1-6 selection_b=7-18 scaling=0.9 benchmark_Eint=-6.333 benchmark_unit=kcal/mol group=CH-O
  H   -3.104228385  -1.023256450   0.982023732
  H   -2.952075429   0.710914775   1.318782870
  H   -1.543737786  -0.361101353   1.533433532
  C   -1.672033873   0.242078546  -1.494032179
  N   -2.039485439   0.059868720  -0.406890303
  C   -2.434153021  -0.167365148   0.939332834
  C    1.157382842  -1.711683495  -0.640767805
  H    1.586413100  -2.487420944  -0.012032377
  H    0.191038636  -2.063043299  -1.001178446
  H    1.803752982  -1.537888328  -1.498726009
  C    0.930103334  -0.472998620   0.195326002
  O    0.472166558  -0.534782430   1.328192329
  N    1.259788086   0.703380322  -0.393174227
  H    1.465444238   0.689194755  -1.375870077
  C    0.934518522   1.979038165   0.212991461
  H    1.068865282   1.900835399   1.287505476
  H   -0.098973507   2.268218288   0.012054801
  H    1.599558140   2.745553354  -0.177370397
