18
charge=0 charge_a=0 charge_b=0 selection_a=1-6 selection_b=7-18 scaling=1.1 benchmark_Eint=-5.376 benchmark_unit=kcal/mol group=CH-O
  H   -1.625251837  -0.166140828   1.642542880
  H   -2.639643952  -1.259606220   0.643247897
  H   -3.295590451   0.304339857   1.285677232
  C   -2.424056603  -0.223804707   0.900192438
  N   -1.929311976   0.531322121  -0.260080785
  O   -1.670524621  -0.144407542  -1.219698352
  C    1.662234783  -1.821431904  -0.566769800
  H    0.694955838  -2.183410102  -0.914640316
  H    2.067190560  -2.555481961   0.124910162
  H    2.326469745  -1.723396420  -1.423424838
  C    1.442663530  -0.520543493   0.172273296
  O    0.953943192  -0.488158773   1.292776156
  N    1.803384545   0.605833651  -0.489251809
  H    2.081506624   0.524782885  -1.449849902
  C    1.515594638   1.926442594   0.039945850
  H    1.800612765   1.965142443   1.087953380
  H    2.091008165   2.662977429  -0.514763239
  H    0.453781453   2.164857021  -0.036385025
