19
charge=0 charge_a=0 charge_b=0 selection_a=1-7 selection_b=8-19 scaling=0.95 benchmark_Eint=-8.366 benchmark_unit=kcal/mol group=CH-O
  H   -2.739221841   0.427721197   1.612838101
  H   -1.220984938  -0.527317162   1.672015546
  H   -2.724413095  -1.300672674   1.088691582
  C   -2.169041280  -0.373288077   1.159951750
  N   -1.799338860   0.045908601  -0.223310995
  O   -1.536573810  -0.835607230  -1.024143944
  O   -1.744980080   1.240503355  -0.458371814
  C    1.606624311  -1.797578047  -0.507274501
  H    2.051166699  -2.505215474   0.188302440
  H    0.643631802  -2.194686721  -0.825354621
  H    2.249696524  -1.693667192  -1.379070959
  C    1.360316435  -0.493529074   0.214638221
  O    0.829211919  -0.458276708   1.318374446
  N    1.749747878   0.628860210  -0.432615013
  H    2.082653807   0.541918543  -1.375132060
  C    1.483240922   1.957253460   0.089566696
  H    1.635284157   1.951939554   1.165144918
  H    0.458626108   2.269556195  -0.113094579
  H    2.172286923   2.663746818  -0.366388423
