18
charge=0 charge_a=0 charge_b=0 selection_a=1-6 selection_b=7-18 scaling=1.5 benchmark_Eint=-2.482 benchmark_unit=kcal/mol group=CH-O
  H   -1.625251837  -0.166140828   1.642542880
  H   -2.639643952  -1.259606220   0.643247897
  H   -3.295590451   0.304339857   1.285677232
  C   -2.424056603  -0.223804707   0.900192438
  N   -1.929311976   0.531322121  -0.260080785
  O   -1.670524621  -0.144407542  -1.219698352
  C    2.600123885  -1.938529338  -0.693957700
  H    1.632844940  -2.300507536  -1.041828216
  H    3.005079662  -2.672579395  -0.002277737
  H    3.264358847  -1.840493854  -1.550612738
  C    2.380552632  -0.637640927   0.045085396
  O    1.891832294  -0.605256207   1.165588256
  N    2.741273647   0.488736217  -0.616439708
  H    3.019395726   0.407685451  -1.577037802
  C    2.453483740   1.809345160  -0.087242050
  H    2.738501867   1.848045009   0.960765480
  H    3.028897267   2.545879995  -0.641951138
  H    1.391670555   2.047759587  -0.163572924
