18
charge=0 charge_a=0 charge_b=0 selection_a=1-6 selection_b=7-18 scaling=0.95 benchmark_Eint=-6.928 benchmark_unit=kcal/mol group=CH-O
  H   -3.104228385  -1.023256450   0.982023732
  H   -2.952075429   0.710914775   1.318782870
  H   -1.543737786  -0.361101353   1.533433532
  C   -1.672033873   0.242078546  -1.494032179
  N   -2.039485439   0.059868720  -0.406890303
  C   -2.434153021  -0.167365148   0.939332834
  C    1.269377528  -1.721332443  -0.652170094
  H    1.698407786  -2.497069892  -0.023434666
  H    0.303033322  -2.072692247  -1.012580735
  H    1.915747668  -1.547537276  -1.510128298
  C    1.042098019  -0.482647568   0.183923713
  O    0.584161243  -0.544431378   1.316790040
  N    1.371782772   0.693731374  -0.404576516
  H    1.577438923   0.679545807  -1.387272366
  C    1.046513208   1.969389217   0.201589172
  H    1.180859967   1.891186451   1.276103187
  H    0.013021178   2.258569340   0.000652512
  H    1.711552825   2.735904406  -0.188772686
