23
charge=0 charge_a=0 charge_b=0 selection_a=1-11 selection_b=12-23 scaling=0.95 benchmark_Eint=-6.242 benchmark_unit=kcal/mol group=CH-O
  H   -0.718810902   1.644865477  -1.222594505
  H   -1.861135815   2.713198083  -0.358985586
  H   -2.456273632   1.510605486  -1.536671765
  H   -0.774435455  -1.435173593   1.674210342
  C   -1.664375147  -0.492027940   0.024339196
  O   -1.833684019   0.814037428   0.322930056
  C   -1.707672625   1.723940281  -0.776952443
  C   -1.772482709  -1.359142143   1.241090656
  O   -1.427246749  -0.877634011  -1.093603962
  H   -2.445209083  -0.929148866   1.977685288
  H   -2.101908012  -2.351285493   0.948151523
  C    1.784167323  -1.426036051  -1.162455513
  H    2.285910703  -0.963799969  -2.011036534
  H    2.351602846  -2.291927074  -0.831873317
  H    0.797009452  -1.761127158  -1.479059356
  C    1.600605073  -0.486312937   0.004961395
  O    1.319330183  -0.881645017   1.126287209
  N    1.726940759   0.838178614  -0.266350404
  H    1.993212104   1.123091993  -1.189933845
  C    1.534203265   1.843842891   0.761532983
  H    2.287549845   1.756961390   1.544081265
  H    0.555338297   1.731444571   1.224142509
  H    1.604996693   2.828525275   0.307263817
