10
charge=0 charge_a=0 charge_b=0 selection_a=1-4 selection_b=5-10 scaling=1.1 benchmark_Eint=-1.993 benchmark_unit=kcal/mol group=CH-O
  C   -2.126067766  -0.318374589   0.000000000
  H   -1.191120246  -0.827130057   0.000000000
  C   -3.166039308   0.272997379   0.000000000
  H   -4.092344523   0.790878621   0.000000000
  H    2.123672763   1.688672307   0.877436980
  H    2.123672763   1.688672307  -0.877436980
  H    0.619832228   1.208149630   0.000000000
  C    1.707745615   1.191256599   0.000000000
  N    2.249644889  -0.181322055   0.000000000
  O    1.414325871  -1.043417858   0.000000000
