7
charge=0 charge_a=0 charge_b=0 selection_a=1-4 selection_b=5-7 scaling=1.5 benchmark_Eint=-1.240 benchmark_unit=kcal/mol group=CH-O
  C   -0.998102419   0.000000000   0.027389486
  H    0.068468561   0.000000000   0.068057451
  C   -2.193935042   0.000000000  -0.021744174
  H   -3.254139240   0.000000000  -0.063600906
  O    3.347357232   0.000000000   0.018748430
  H    3.811682456  -0.764245022  -0.331549980
  H    3.811682456   0.764245022  -0.331549980
