19
charge=0 charge_a=0 charge_b=0 selection_a=1-7 selection_b=8-19 scaling=1.1 benchmark_Eint=-8.539 benchmark_unit=kcal/mol group=CH-O
  H   -1.421966272  -1.093598490   1.263126162
  H   -2.872230360  -1.591722877   0.322529171
  H   -3.066977886  -0.608275472   1.800438995
  C   -2.427661039  -0.826684788   0.953955992
  O   -2.372566127   0.430843752   0.198365167
  C   -1.601016922   0.442302712  -0.820712099
  N   -0.922227560   0.505641228  -1.754031161
  C    1.988736074  -1.550298387  -0.914743135
  H    2.898669546  -1.298855790  -1.456547396
  H    2.097508243  -2.525724558  -0.449433883
  H    1.164503510  -1.592900885  -1.626847586
  C    1.634898105  -0.533122750   0.143267046
  O    0.929333704  -0.814053695   1.104960376
  N    2.133078950   0.711424923  -0.047440786
  H    2.543195849   0.910056788  -0.942448613
  C    1.701941798   1.834432387   0.761488114
  H    1.632014256   1.518292820   1.797814473
  H    0.724715662   2.205459143   0.445888490
  H    2.430153850   2.637473465   0.679853209
