17
charge=0 charge_a=0 charge_b=0 selection_a=1-4 selection_b=5-17 scaling=1.5 benchmark_Eint=-1.146 benchmark_unit=kcal/mol group=CH-O
  C    3.497263390   0.005071102  -0.164648372
  H    2.646866729  -0.618005884  -0.010424745
  C    4.447006683   0.712526927  -0.335172122
  H    5.290114219   1.338597158  -0.487362299
  H   -0.257257424   0.557586752   1.011014100
  H   -4.323601021   1.340724750  -0.119108460
  H   -2.125922330   2.147182590   0.689462282
  H   -2.771068237  -2.650527650  -0.285288624
  H   -0.587546407  -2.875382284   0.361551192
  H   -4.635755131  -1.067811692  -0.604005652
  C   -3.507789808   0.647266276   0.021474896
  C   -2.273008295   1.098081840   0.475691548
  C   -1.219253333   0.215114030   0.660026706
  C   -1.404917208  -1.134925754   0.384060208
  C   -2.634118000  -1.597859872  -0.071513560
  C   -3.681900215  -0.703217052  -0.250221474
  O   -0.336847414  -1.973368122   0.577534946
