16
charge=0 charge_a=0 charge_b=0 selection_a=1-4 selection_b=5-16 scaling=0.95 benchmark_Eint=-4.506 benchmark_unit=kcal/mol group=CH-O
  C   -2.942257651  -0.471523277  -0.001467712
  H   -1.902980775  -0.723094487  -0.069449718
  C   -4.098370664  -0.169020571   0.076821865
  H   -5.124749270   0.090823236   0.145323115
  C   -0.010876440   1.620525696  -0.029677009
  H   -0.572844149   1.722280658  -0.956187474
  H    0.664269127   2.467771994   0.073037393
  H   -0.730349822   1.634627438   0.786539809
  C    0.695969037   0.283138252  -0.034397792
  O    0.078815912  -0.768960686  -0.120818578
  N    2.048759205   0.330290918   0.060898108
  H    2.487748857   1.230103252   0.127876015
  C    2.883828350  -0.854888754   0.068546007
  H    2.231870519  -1.719604406  -0.001121210
  H    3.568433857  -0.857146548  -0.779703293
  H    3.462310481  -0.919083316   0.990073797
