11
charge=0 charge_a=0 charge_b=0 selection_a=1-4 selection_b=5-11 scaling=1.05 benchmark_Eint=-2.791 benchmark_unit=kcal/mol group=CH-N
  C    2.551418700  -0.510074825   0.000000000
  H    1.509617183  -0.734155788   0.000000000
  C    3.717005672  -0.240030014   0.000000000
  H    4.752501692  -0.007763900   0.000000000
  H   -1.017842717   2.031663715  -0.890504640
  H   -1.017842717   2.031663715   0.890504640
  H    0.488244271   1.751156734   0.000000000
  C   -0.582070271   1.576778260   0.000000000
  N   -0.770239929   0.116168930   0.000000000
  N   -1.930908449  -0.277032527   0.000000000
  N   -2.956365921  -0.748093545   0.000000000
