18
charge=0 charge_a=0 charge_b=0 selection_a=1-4 selection_b=5-18 scaling=0.85 benchmark_Eint=-2.636 benchmark_unit=kcal/mol group=CH-N
  C    2.803242417  -0.002906470   0.000000000
  H    1.738294652   0.144141849  -0.000000000
  C    3.989117792  -0.172749556   0.000000000
  H    5.039614117  -0.321748470   0.000000000
  H   -2.721951046   0.461296204   0.875968190
  H   -3.053607438  -1.037009751   0.000000000
  H   -2.721951046   0.461296204  -0.875968190
  H   -1.002255159  -2.393788071  -0.876070530
  H   -1.011743057   2.118580653   0.882197754
  H   -1.011743057   2.118580653  -0.882197754
  H    0.481145607   2.449423214  -0.000000000
  H   -1.002255159  -2.393788071   0.876070530
  H    0.492787860  -2.003063565   0.000000000
  C   -0.974832219  -0.440809162   0.000000000
  N   -0.061375989   0.440715846  -0.000000000
  C   -0.424521634   1.847740495  -0.000000000
  C   -0.587083506  -1.890669060   0.000000000
  C   -2.453146831  -0.131234497   0.000000000
