18
charge=0 charge_a=0 charge_b=0 selection_a=1-4 selection_b=5-18 scaling=2.0 benchmark_Eint=-0.800 benchmark_unit=kcal/mol group=CH-N
  C    2.803242417  -0.002906470   0.000000000
  H    1.738294652   0.144141849  -0.000000000
  C    3.989117792  -0.172749556   0.000000000
  H    5.039614117  -0.321748470   0.000000000
  H   -5.156799561   0.862543377   0.875968190
  H   -5.488455953  -0.635762578   0.000000000
  H   -5.156799561   0.862543377  -0.875968190
  H   -3.437103674  -1.992540898  -0.876070530
  H   -3.446591572   2.519827826   0.882197754
  H   -3.446591572   2.519827826  -0.882197754
  H   -1.953702908   2.850670387   0.000000000
  H   -3.437103674  -1.992540898   0.876070530
  H   -1.942060655  -1.601816392   0.000000000
  C   -3.409680734  -0.039561989   0.000000000
  N   -2.496224504   0.841963019   0.000000000
  C   -2.859370149   2.248987668   0.000000000
  C   -3.021932021  -1.489421887   0.000000000
  C   -4.887995346   0.270012676   0.000000000
