14
charge=0 charge_a=0 charge_b=0 selection_a=1-4 selection_b=5-14 scaling=0.95 benchmark_Eint=-2.904 benchmark_unit=kcal/mol group=CH-N
  C    2.449319184   0.044371208   0.000000000
  H    1.384768316  -0.058136862   0.000000000
  C    3.640694696   0.161388052   0.000000000
  H    4.696775374   0.264808000   0.000000000
  H   -0.647578988  -2.276871561   0.877886344
  H   -2.183454580  -1.981123226   0.000000000
  H   -0.647578988  -2.276871561  -0.877886344
  H   -1.856999641   2.218594581  -0.877585149
  H   -0.320429491   1.934045815   0.000000000
  H   -1.856999641   2.218594581   0.877585149
  C   -1.105631765  -1.820956114   0.000000000
  N   -0.763810150  -0.401713855   0.000000000
  N   -1.740304160   0.345826657   0.000000000
  C   -1.397123098   1.764207500   0.000000000
