10
charge=0 charge_a=0 charge_b=0 selection_a=1-4 selection_b=5-10 scaling=0.8 benchmark_Eint=-0.062 benchmark_unit=kcal/mol group=CH-N
  C    2.632381871  -0.000000257   0.000000000
  H    1.565358322  -0.000000754   0.000000000
  C    3.829307843   0.000000417   0.000000000
  H    4.890207532   0.000001030   0.000000000
  H   -3.247845990  -0.511142398  -0.885325248
  H   -3.247845990  -0.511142398   0.885325248
  H   -3.247845800   1.022285957   0.000000000
  C   -2.874196650   0.000000371   0.000000000
  C   -1.421057338   0.000000026   0.000000000
  N   -0.273636104  -0.000000655   0.000000000
