8
charge=0 charge_a=0 charge_b=0 selection_a=1-4 selection_b=5-8 scaling=0.85 benchmark_Eint=-1.957 benchmark_unit=kcal/mol group=CH-N
  C   -0.980342327  -0.000000374   0.000000000
  H    0.091450754  -0.000000299   0.000000000
  C   -2.177833273   0.000000216   0.000000000
  H   -3.238844962   0.000000910   0.000000000
  N    2.008927668   0.000000115   0.000000000
  H    2.382080684  -0.470564386  -0.815040377
  H    2.382080684  -0.470564386   0.815040377
  H    2.382082560   0.941127199   0.000000000
