14
charge=0 charge_a=0 charge_b=0 selection_a=1-4 selection_b=5-14 scaling=0.95 benchmark_Eint=-4.419 benchmark_unit=kcal/mol group=CH-N
  C    1.925808736   0.000000108   0.202289965
  H    0.896204749   0.000000070   0.510081042
  C    3.070106465   0.000000064  -0.151294570
  H    4.084994754   0.000000021  -0.461066359
  H   -0.682711055   1.283367814  -1.078048739
  H   -2.408732714   1.257297770  -0.693402902
  H   -1.260447726   2.085891631   0.378809393
  H   -1.695931925  -0.000000259   1.349951779
  H   -1.260446915  -2.085891468   0.378809633
  H   -0.682710760  -1.283367849  -1.078048904
  H   -2.408732346  -1.257298155  -0.693402757
  C   -1.400356480   1.215186736  -0.259346000
  N   -1.146418832  -0.000000014   0.502151424
  C   -1.400356062  -1.215186841  -0.259346004
