8
charge=0 charge_a=0 charge_b=0 selection_a=1-4 selection_b=5-8 scaling=2.0 benchmark_Eint=-0.587 benchmark_unit=kcal/mol group=CH-N
  C   -0.980342327  -0.000000374   0.000000000
  H    0.091450754  -0.000000299   0.000000000
  C   -2.177833273   0.000000216   0.000000000
  H   -3.238844962   0.000000910   0.000000000
  N    4.603161140   0.000000675   0.000000000
  H    4.976314156  -0.470563826  -0.815040377
  H    4.976314156  -0.470563826   0.815040377
  H    4.976316032   0.941127759   0.000000000
