14
charge=0 charge_a=0 charge_b=0 selection_a=1-4 selection_b=5-14 scaling=1.5 benchmark_Eint=-1.328 benchmark_unit=kcal/mol group=CH-N
  C    2.449319184   0.044371208   0.000000000
  H    1.384768316  -0.058136862   0.000000000
  C    3.640694696   0.161388052   0.000000000
  H    4.696775374   0.264808000   0.000000000
  H   -1.891492836  -2.475784558   0.877886344
  H   -3.427368428  -2.180036222   0.000000000
  H   -1.891492836  -2.475784558  -0.877886344
  H   -3.100913490   2.019681584  -0.877585149
  H   -1.564343340   1.735132818   0.000000000
  H   -3.100913490   2.019681584   0.877585149
  C   -2.349545614  -2.019869110   0.000000000
  N   -2.007723998  -0.600626852   0.000000000
  N   -2.984218008   0.146913660   0.000000000
  C   -2.641036946   1.565294504   0.000000000
