14
charge=0 charge_a=0 charge_b=0 selection_a=1-4 selection_b=5-14 scaling=1.05 benchmark_Eint=-4.542 benchmark_unit=kcal/mol group=CH-N
  C    1.925808736   0.000000108   0.202289965
  H    0.896204749   0.000000070   0.510081042
  C    3.070106465   0.000000064  -0.151294570
  H    4.084994754   0.000000021  -0.461066359
  H   -0.897724063   1.283367806  -1.078883435
  H   -2.623745722   1.257297762  -0.694237598
  H   -1.475460734   2.085891623   0.377974697
  H   -1.910944933  -0.000000267   1.349117083
  H   -1.475459923  -2.085891476   0.377974937
  H   -0.897723768  -1.283367857  -1.078883600
  H   -2.623745354  -1.257298163  -0.694237453
  C   -1.615369488   1.215186728  -0.260180696
  N   -1.361431840  -0.000000022   0.501316728
  C   -1.615369070  -1.215186849  -0.260180700
