14
charge=0 charge_a=0 charge_b=0 selection_a=1-4 selection_b=5-14 scaling=1.0 benchmark_Eint=-3.085 benchmark_unit=kcal/mol group=CH-N
  C    2.449319184   0.044371208   0.000000000
  H    1.384768316  -0.058136862   0.000000000
  C    3.640694696   0.161388052   0.000000000
  H    4.696775374   0.264808000   0.000000000
  H   -0.760662065  -2.294954561   0.877886344
  H   -2.296537657  -1.999206226   0.000000000
  H   -0.760662065  -2.294954561  -0.877886344
  H   -1.970082718   2.200511581  -0.877585149
  H   -0.433512568   1.915962815   0.000000000
  H   -1.970082718   2.200511581   0.877585149
  C   -1.218714842  -1.839039114   0.000000000
  N   -0.876893227  -0.419796855   0.000000000
  N   -1.853387237   0.327743657   0.000000000
  C   -1.510206175   1.746124500   0.000000000
