15
charge=0 charge_a=0 charge_b=0 selection_a=1-4 selection_b=5-15 scaling=1.0 benchmark_Eint=-4.146 benchmark_unit=kcal/mol group=CH-N
  C   -3.259011169  -0.194006028   0.000000000
  H   -2.228267970  -0.488748998   0.000000000
  C   -4.406794317   0.147405679   0.000000000
  H   -5.425095934   0.445506402   0.000000000
  H    1.717580494   2.426627915   0.000000000
  H   -0.604851808   1.544763183   0.000000000
  C    2.591749646   0.455710896   0.000000000
  C    1.540416747   1.361232517   0.000000000
  C    0.241839253   0.868792167   0.000000000
  N   -0.045774092  -0.432624208   0.000000000
  C    0.970195916  -1.295241609   0.000000000
  C    2.301954732  -0.901502651   0.000000000
  H    0.707071784  -2.345614444   0.000000000
  H    3.087663086  -1.642585785   0.000000000
  H    3.616137044   0.800402903   0.000000000
