15
charge=0 charge_a=0 charge_b=0 selection_a=1-4 selection_b=5-15 scaling=1.5 benchmark_Eint=-1.837 benchmark_unit=kcal/mol group=CH-N
  C   -3.259011169  -0.194006028   0.000000000
  H   -2.228267970  -0.488748998   0.000000000
  C   -4.406794317   0.147405679   0.000000000
  H   -5.425095934   0.445506402   0.000000000
  H    2.808827433   2.454690310   0.000000000
  H    0.486395131   1.572825578   0.000000000
  C    3.682996585   0.483773291   0.000000000
  C    2.631663686   1.389294912   0.000000000
  C    1.333086192   0.896854562   0.000000000
  N    1.045472847  -0.404561813   0.000000000
  C    2.061442855  -1.267179214   0.000000000
  C    3.393201671  -0.873440256   0.000000000
  H    1.798318723  -2.317552049   0.000000000
  H    4.178910025  -1.614523390   0.000000000
  H    4.707383983   0.828465298   0.000000000
