15
charge=0 charge_a=0 charge_b=0 selection_a=1-4 selection_b=5-15 scaling=0.9 benchmark_Eint=-3.402 benchmark_unit=kcal/mol group=CH-N
  C   -3.259011169  -0.194006028   0.000000000
  H   -2.228267970  -0.488748998   0.000000000
  C   -4.406794317   0.147405679   0.000000000
  H   -5.425095934   0.445506402   0.000000000
  H    1.499331106   2.421015436   0.000000000
  H   -0.823101196   1.539150704   0.000000000
  C    2.373500258   0.450098417   0.000000000
  C    1.322167359   1.355620038   0.000000000
  C    0.023589865   0.863179688   0.000000000
  N   -0.264023480  -0.438236687   0.000000000
  C    0.751946528  -1.300854088   0.000000000
  C    2.083705344  -0.907115130   0.000000000
  H    0.488822396  -2.351226923   0.000000000
  H    2.869413698  -1.648198264   0.000000000
  H    3.397887656   0.794790424   0.000000000
