11
charge=0 charge_a=0 charge_b=0 selection_a=1-4 selection_b=5-11 scaling=1.5 benchmark_Eint=-1.089 benchmark_unit=kcal/mol group=CH-N
  C    2.551418700  -0.510074825   0.000000000
  H    1.509617183  -0.734155788   0.000000000
  C    3.717005672  -0.240030014   0.000000000
  H    4.752501692  -0.007763900   0.000000000
  H   -1.994924337   2.396088594  -0.890504640
  H   -1.994924337   2.396088594   0.890504640
  H   -0.488837349   2.115581614   0.000000000
  C   -1.559151891   1.941203140   0.000000000
  N   -1.747321549   0.480593810   0.000000000
  N   -2.907990069   0.087392353   0.000000000
  N   -3.933447541  -0.383668666   0.000000000
