18
charge=0 charge_a=0 charge_b=0 selection_a=1-4 selection_b=5-18 scaling=0.9 benchmark_Eint=-3.810 benchmark_unit=kcal/mol group=CH-N
  C    2.803242417  -0.002906470   0.000000000
  H    1.738294652   0.144141849  -0.000000000
  C    3.989117792  -0.172749556   0.000000000
  H    5.039614117  -0.321748470   0.000000000
  H   -2.827814025   0.478741734   0.875968190
  H   -3.159470417  -1.019564222   0.000000000
  H   -2.827814025   0.478741734  -0.875968190
  H   -1.108118138  -2.376342542  -0.876070530
  H   -1.117606036   2.136026182   0.882197754
  H   -1.117606036   2.136026182  -0.882197754
  H    0.375282628   2.466868744  -0.000000000
  H   -1.108118138  -2.376342542   0.876070530
  H    0.386924881  -1.985618036   0.000000000
  C   -1.080695198  -0.423363632   0.000000000
  N   -0.167238968   0.458161376  -0.000000000
  C   -0.530384613   1.865186024  -0.000000000
  C   -0.692946485  -1.873223530   0.000000000
  C   -2.559009810  -0.113788968   0.000000000
