18
charge=0 charge_a=0 charge_b=0 selection_a=1-4 selection_b=5-18 scaling=1.05 benchmark_Eint=-4.638 benchmark_unit=kcal/mol group=CH-N
  C    2.803242417  -0.002906470   0.000000000
  H    1.738294652   0.144141849  -0.000000000
  C    3.989117792  -0.172749556   0.000000000
  H    5.039614117  -0.321748470   0.000000000
  H   -3.145402962   0.531078321   0.875968190
  H   -3.477059354  -0.967227634   0.000000000
  H   -3.145402962   0.531078321  -0.875968190
  H   -1.425707075  -2.324005954  -0.876070530
  H   -1.435194973   2.188362770   0.882197754
  H   -1.435194973   2.188362770  -0.882197754
  H    0.057693691   2.519205331   0.000000000
  H   -1.425707075  -2.324005954   0.876070530
  H    0.069335944  -1.933281448   0.000000000
  C   -1.398284135  -0.371027045   0.000000000
  N   -0.484827905   0.510497963   0.000000000
  C   -0.847973550   1.917522612   0.000000000
  C   -1.010535422  -1.820886943   0.000000000
  C   -2.876598747  -0.061452380   0.000000000
