15
charge=0 charge_a=0 charge_b=0 selection_a=1-4 selection_b=5-15 scaling=1.05 benchmark_Eint=-4.111 benchmark_unit=kcal/mol group=CH-N
  C   -3.259011169  -0.194006028   0.000000000
  H   -2.228267970  -0.488748998   0.000000000
  C   -4.406794317   0.147405679   0.000000000
  H   -5.425095934   0.445506402   0.000000000
  H    1.826705188   2.429434154   0.000000000
  H   -0.495727114   1.547569422   0.000000000
  C    2.700874340   0.458517136   0.000000000
  C    1.649541441   1.364038756   0.000000000
  C    0.350963947   0.871598406   0.000000000
  N    0.063350602  -0.429817968   0.000000000
  C    1.079320610  -1.292435370   0.000000000
  C    2.411079426  -0.898696412   0.000000000
  H    0.816196478  -2.342808204   0.000000000
  H    3.196787780  -1.639779546   0.000000000
  H    3.725261738   0.803209142   0.000000000
