11
charge=0 charge_a=0 charge_b=0 selection_a=1-4 selection_b=5-11 scaling=0.9 benchmark_Eint=-2.351 benchmark_unit=kcal/mol group=CH-N
  C    2.551418700  -0.510074825   0.000000000
  H    1.509617183  -0.734155788   0.000000000
  C    3.717005672  -0.240030014   0.000000000
  H    4.752501692  -0.007763900   0.000000000
  H   -0.692148844   1.910188756  -0.890504640
  H   -0.692148844   1.910188756   0.890504640
  H    0.813938144   1.629681774   0.000000000
  C   -0.256376398   1.455303300   0.000000000
  N   -0.444546056  -0.005306029   0.000000000
  N   -1.605214576  -0.398507486   0.000000000
  N   -2.630672048  -0.869568504   0.000000000
