15
charge=0 charge_a=0 charge_b=0 selection_a=1-4 selection_b=5-15 scaling=1.25 benchmark_Eint=-3.103 benchmark_unit=kcal/mol group=CH-N
  C   -3.259011169  -0.194006028   0.000000000
  H   -2.228267970  -0.488748998   0.000000000
  C   -4.406794317   0.147405679   0.000000000
  H   -5.425095934   0.445506402   0.000000000
  H    2.263203964   2.440659112   0.000000000
  H   -0.059228338   1.558794380   0.000000000
  C    3.137373116   0.469742094   0.000000000
  C    2.086040216   1.375263714   0.000000000
  C    0.787462722   0.882823364   0.000000000
  N    0.499849378  -0.418593010   0.000000000
  C    1.515819386  -1.281210412   0.000000000
  C    2.847578202  -0.887471454   0.000000000
  H    1.252695254  -2.331583246   0.000000000
  H    3.633286556  -1.628554588   0.000000000
  H    4.161760514   0.814434100   0.000000000
