14
charge=0 charge_a=0 charge_b=0 selection_a=1-4 selection_b=5-14 scaling=0.85 benchmark_Eint=-2.758 benchmark_unit=kcal/mol group=CH-N
  C    1.925808736   0.000000108   0.202289965
  H    0.896204749   0.000000070   0.510081042
  C    3.070106465   0.000000064  -0.151294570
  H    4.084994754   0.000000021  -0.461066359
  H   -0.467698046   1.283367823  -1.077214042
  H   -2.193719705   1.257297779  -0.692568205
  H   -1.045434717   2.085891640   0.379644090
  H   -1.480918916  -0.000000250   1.350786476
  H   -1.045433906  -2.085891459   0.379644330
  H   -0.467697751  -1.283367840  -1.077214207
  H   -2.193719337  -1.257298146  -0.692568060
  C   -1.185343471   1.215186745  -0.258511303
  N   -0.931405823  -0.000000005   0.502986121
  C   -1.185343053  -1.215186832  -0.258511307
