11
charge=0 charge_a=0 charge_b=0 selection_a=1-4 selection_b=5-11 scaling=1.25 benchmark_Eint=-1.975 benchmark_unit=kcal/mol group=CH-N
  C    2.551418700  -0.510074825   0.000000000
  H    1.509617183  -0.734155788   0.000000000
  C    3.717005672  -0.240030014   0.000000000
  H    4.752501692  -0.007763900   0.000000000
  H   -1.452101215   2.193630328  -0.890504640
  H   -1.452101215   2.193630328   0.890504640
  H    0.053985773   1.913123347   0.000000000
  C   -1.016328769   1.738744873   0.000000000
  N   -1.204498427   0.278135543   0.000000000
  N   -2.365166947  -0.115065914   0.000000000
  N   -3.390624419  -0.586126932   0.000000000
