14
charge=0 charge_a=0 charge_b=0 selection_a=1-4 selection_b=5-14 scaling=1.1 benchmark_Eint=-2.949 benchmark_unit=kcal/mol group=CH-N
  C    2.449319184   0.044371208   0.000000000
  H    1.384768316  -0.058136862   0.000000000
  C    3.640694696   0.161388052   0.000000000
  H    4.696775374   0.264808000   0.000000000
  H   -0.986828219  -2.331120560   0.877886344
  H   -2.522703811  -2.035372225   0.000000000
  H   -0.986828219  -2.331120560  -0.877886344
  H   -2.196248872   2.164345582  -0.877585149
  H   -0.659678722   1.879796816   0.000000000
  H   -2.196248872   2.164345582   0.877585149
  C   -1.444880996  -1.875205113   0.000000000
  N   -1.103059381  -0.455962854   0.000000000
  N   -2.079553391   0.291577658   0.000000000
  C   -1.736372329   1.709958501   0.000000000
