14
charge=0 charge_a=0 charge_b=0 selection_a=1-4 selection_b=5-14 scaling=1.25 benchmark_Eint=-2.309 benchmark_unit=kcal/mol group=CH-N
  C    2.449319184   0.044371208   0.000000000
  H    1.384768316  -0.058136862   0.000000000
  C    3.640694696   0.161388052   0.000000000
  H    4.696775374   0.264808000   0.000000000
  H   -1.326077451  -2.385369559   0.877886344
  H   -2.861953043  -2.089621224   0.000000000
  H   -1.326077451  -2.385369559  -0.877886344
  H   -2.535498104   2.110096583  -0.877585149
  H   -0.998927954   1.825547817   0.000000000
  H   -2.535498104   2.110096583   0.877585149
  C   -1.784130228  -1.929454112   0.000000000
  N   -1.442308613  -0.510211853   0.000000000
  N   -2.418802623   0.237328659   0.000000000
  C   -2.075621561   1.655709502   0.000000000
