10
charge=0 charge_a=0 charge_b=0 selection_a=1-4 selection_b=5-10 scaling=1.05 benchmark_Eint=-3.055 benchmark_unit=kcal/mol group=CH-N
  C    2.632381871  -0.000000257   0.000000000
  H    1.565358322  -0.000000754   0.000000000
  C    3.829307843   0.000000417   0.000000000
  H    4.890207532   0.000001030   0.000000000
  H   -3.822531748  -0.511142367  -0.885325248
  H   -3.822531748  -0.511142367   0.885325248
  H   -3.822531558   1.022285988   0.000000000
  C   -3.448882408   0.000000402   0.000000000
  C   -1.995743096   0.000000057   0.000000000
  N   -0.848321862  -0.000000624   0.000000000
