14
charge=0 charge_a=0 charge_b=0 selection_a=1-4 selection_b=5-14 scaling=0.9 benchmark_Eint=-2.421 benchmark_unit=kcal/mol group=CH-N
  C    2.449319184   0.044371208   0.000000000
  H    1.384768316  -0.058136862   0.000000000
  C    3.640694696   0.161388052   0.000000000
  H    4.696775374   0.264808000   0.000000000
  H   -0.534495911  -2.258788562   0.877886344
  H   -2.070371503  -1.963040227   0.000000000
  H   -0.534495911  -2.258788562  -0.877886344
  H   -1.743916564   2.236677580  -0.877585149
  H   -0.207346414   1.952128814   0.000000000
  H   -1.743916564   2.236677580   0.877585149
  C   -0.992548688  -1.802873115   0.000000000
  N   -0.650727073  -0.383630856   0.000000000
  N   -1.627221083   0.363909656   0.000000000
  C   -1.284040021   1.782290499   0.000000000
