14
charge=0 charge_a=0 charge_b=0 selection_a=1-7 selection_b=8-14 scaling=0.95 benchmark_Eint=-5.150 benchmark_unit=kcal/mol group=CH-N
  H    1.300384215   1.862983925   0.902773771
  H   -0.206479321   1.497441847   0.000000000
  H    1.300384215   1.862983925  -0.902773771
  C    0.883715621   1.433516356   0.000000000
  N    1.190457063  -0.027105697   0.000000000
  O    1.283973066  -0.580655658   1.081974411
  O    1.283973066  -0.580655658  -1.081974411
  N   -2.243145886   0.654348471   0.000000000
  H   -2.777871729   0.937543653   0.810922096
  H   -2.777871729   0.937543653  -0.810922096
  C   -2.040478050  -0.801075545   0.000000000
  H   -1.459799603  -1.081866688  -0.876484606
  H   -2.965342958  -1.386229115   0.000000000
  H   -1.459799603  -1.081866688   0.876484606
