17
charge=0 charge_a=0 charge_b=0 selection_a=1-7 selection_b=8-17 scaling=0.95 benchmark_Eint=-5.700 benchmark_unit=kcal/mol group=CH-N
  H    1.811725800  -0.959621864  -1.824816914
  H    1.620174648  -2.103856651  -0.441177293
  H    0.216213655  -1.155077192  -1.011486025
  C    1.299838981  -1.173571096  -0.895509035
  N    1.593030603  -0.070001464   0.065466226
  O    1.390238388  -0.294584154   1.247298307
  O    1.970597181   0.994082981  -0.390545373
  H   -3.216541182  -0.748483601  -1.070427258
  H   -3.612489934  -0.342562880   0.602980677
  H   -2.750730478  -1.847186205   0.226415699
  H   -1.148140924  -0.291679774   0.952407696
  H   -0.642605698   1.741759852  -0.081698766
  H   -1.907415140   1.448434106  -1.273328936
  H   -2.349205056   1.817791591   0.397957456
  C   -2.849032350  -0.796979906  -0.044456712
  N   -1.552286442  -0.141281063   0.037497227
  C   -1.620611252   1.289667685  -0.232957041
