14
charge=0 charge_a=0 charge_b=0 selection_a=1-7 selection_b=8-14 scaling=0.95 benchmark_Eint=-6.156 benchmark_unit=kcal/mol group=CH-N
  H   -1.484739676  -2.404787069   0.245426547
  H   -1.861017011  -1.447156479  -1.214646250
  H   -0.166551639  -1.529404495  -0.616288004
  C   -1.219026747  -1.534165478  -0.341673449
  O   -1.474391421  -0.394246630   0.545379775
  C   -1.104858440   0.748083159   0.102336187
  N   -0.779507848   1.796786132  -0.258056334
  N    1.732428164  -0.263917727  -0.677893307
  H    1.302068604   0.615013302  -0.938369039
  H    2.463887267  -0.450245643  -1.351074492
  C    2.287673444  -0.170403239   0.674897047
  H    2.708760418  -1.133227686   0.962744067
  H    3.064943391   0.590906121   0.796761027
  H    1.485946053   0.060878321   1.374504599
