13
charge=0 charge_a=0 charge_b=0 selection_a=1-6 selection_b=7-13 scaling=1.1 benchmark_Eint=-4.280 benchmark_unit=kcal/mol group=CH-N
  H   -1.555357117   1.507334718   1.186960791
  H   -2.072379397   1.718146648  -0.495610151
  H   -0.341646914   1.500576673  -0.121508730
  C   -1.538676884  -1.341104829  -0.107141320
  N   -1.484594239  -0.186724246   0.019266037
  C   -1.357089144   1.221027813   0.156209504
  N    1.889144477   0.106845450  -0.739518627
  H    1.379315479  -0.622038722  -1.221842638
  H    2.683043892   0.344663496  -1.318801392
  C    2.328423855  -0.367308584   0.575097312
  H    2.848144630   0.437380142   1.094048981
  H    2.991383882  -1.238496638   0.549104334
  H    1.454949463  -0.633839352   1.167829469
