16
charge=0 charge_a=0 charge_b=0 selection_a=1-9 selection_b=10-16 scaling=0.85 benchmark_Eint=-1.960 benchmark_unit=kcal/mol group=CH-N
  H   -1.762133070   2.224272550   0.385520184
  H   -3.626079629   0.220287765   0.314214456
  H    0.620629276   0.958941406  -0.138482378
  H   -2.179210861  -2.031725158  -0.243630158
  C   -2.565988935   0.132147016   0.157208312
  C   -1.589543084   1.180283099   0.194523396
  C   -0.391913915   0.599793502  -0.060282527
  O   -0.557637273  -0.741277284  -0.254044427
  C   -1.886183339  -1.006390911  -0.117837798
  N    2.619200602   0.645884561  -0.315468508
  H    2.746191232   0.412147459  -1.291286382
  H    3.379231474   1.261973988  -0.060059366
  C    2.624084236  -0.563111053   0.513007541
  H    2.476147367  -0.282447250   1.554966953
  H    3.541335835  -1.158331083   0.448538749
  H    1.785642324  -1.195681105   0.227186748
