16
charge=0 charge_a=0 charge_b=0 selection_a=1-6 selection_b=7-16 scaling=0.95 benchmark_Eint=-3.329 benchmark_unit=kcal/mol group=CH-N
  H    2.004943888   1.727033527   0.875557006
  H    2.004943888   1.727033527  -0.875557006
  H    0.548632130   1.099158806   0.000000000
  C    1.635542562   1.189504088   0.000000000
  N    2.320876672  -0.117799410   0.000000000
  O    1.579852910  -1.063145924   0.000000000
  H   -0.784622056  -0.827312332  -1.266032305
  H   -2.550254480  -0.921835367  -1.261886905
  H   -1.727750919   0.417759664  -2.086643210
  H   -2.441772920   1.223878809   0.000000000
  H   -1.727750919   0.417759664   2.086643210
  H   -0.784622056  -0.827312332   1.266032305
  H   -2.550254480  -0.921835367   1.261886905
  C   -1.695861891  -0.231548183  -1.212798705
  N   -1.667794000   0.574134523   0.000000000
  C   -1.695861891  -0.231548183   1.212798705
