17
charge=0 charge_a=0 charge_b=0 selection_a=1-4 selection_b=5-17 scaling=1.5 benchmark_Eint=-2.028 benchmark_unit=kcal/mol group=CH-N
  C    2.283412483   0.000007137   0.000000046
  H    1.207338154   0.000010875   0.000000069
  C    3.481267117   0.000001134   0.000000067
  H    4.542388365  -0.000004462   0.000000095
  H   -3.518270366   0.746362228   1.292991228
  H   -2.031911188   0.182814048   2.081882024
  H   -2.031912232   1.711350136   1.199543842
  H   -2.031911868   1.711548930  -1.199260298
  H   -3.518269982   0.746576408  -1.292867934
  H   -2.031910594   0.183159052  -2.081851616
  H   -3.518251376  -1.492975954  -0.000123804
  H   -2.031887838  -1.894377554  -0.882616906
  C   -2.421599930   0.694358712   1.202903588
  N   -1.994142168  -0.000005882   0.000000062
  C   -2.421599578   0.694558112  -1.202788568
  C   -2.421582836  -1.388940680  -0.000115186
  H   -2.031888160  -1.894523806   0.882302946
