11
charge=0 charge_a=0 charge_b=0 selection_a=1-7 selection_b=8-11 scaling=1.5 benchmark_Eint=-2.594 benchmark_unit=kcal/mol group=CH-N
  H    1.106072405   1.441982443  -1.351704141
  H    1.328457188   2.315260346   0.190512700
  H   -0.272332719   1.594326646  -0.208746230
  C    0.806822678   1.507807239  -0.308641488
  O    1.248661687   0.293334833   0.384623530
  C    0.648520988  -0.785933049   0.050030179
  N    0.125365345  -1.779766688  -0.222719375
  N   -3.438530271  -0.183403306   0.227231416
  H   -3.056894604  -1.113464688   0.090906815
  H   -4.152744002  -0.045359364  -0.476944571
  H   -3.906398167  -0.182284618   1.125123706
