14
charge=0 charge_a=0 charge_b=0 selection_a=1-7 selection_b=8-14 scaling=1.0 benchmark_Eint=-5.323 benchmark_unit=kcal/mol group=CH-N
  H    1.300384215   1.862983925   0.902773771
  H   -0.206479321   1.497441847   0.000000000
  H    1.300384215   1.862983925  -0.902773771
  C    0.883715621   1.433516356   0.000000000
  N    1.190457063  -0.027105697   0.000000000
  O    1.283973066  -0.580655658   1.081974411
  O    1.283973066  -0.580655658  -1.081974411
  N   -2.350338863   0.609975135   0.000000000
  H   -2.885064706   0.893170317   0.810922096
  H   -2.885064706   0.893170317  -0.810922096
  C   -2.147671027  -0.845448881   0.000000000
  H   -1.566992580  -1.126240024  -0.876484606
  H   -3.072535935  -1.430602451   0.000000000
  H   -1.566992580  -1.126240024   0.876484606
