16
charge=0 charge_a=0 charge_b=0 selection_a=1-6 selection_b=7-16 scaling=0.9 benchmark_Eint=-3.956 benchmark_unit=kcal/mol group=CH-N
  H   -2.036071347   1.715914880  -0.886107363
  H   -0.519933077   1.396871626   0.000000000
  H   -2.036071347   1.715914880   0.886107363
  C   -2.076121961  -1.281782126   0.000000000
  N   -1.882124042  -0.135412826   0.000000000
  C   -1.601799289   1.257398213   0.000000000
  H    0.507957484  -0.794747455   1.266557044
  H    2.269044364  -0.935988493   1.265671313
  H    1.480720848   0.424853912   2.088007874
  H    2.238553103   1.196719032   0.000000000
  H    1.480720848   0.424853912  -2.088007874
  H    0.507957484  -0.794747455  -1.266557044
  H    2.269044364  -0.935988493  -1.265671313
  C    1.434048140  -0.223318564   1.214106946
  N    1.434243585   0.584273842   0.000000000
  C    1.434048140  -0.223318564  -1.214106946
