14
charge=0 charge_a=0 charge_b=0 selection_a=1-7 selection_b=8-14 scaling=1.05 benchmark_Eint=-6.212 benchmark_unit=kcal/mol group=CH-N
  H   -1.484739676  -2.404787069   0.245426547
  H   -1.861017011  -1.447156479  -1.214646250
  H   -0.166551639  -1.529404495  -0.616288004
  C   -1.219026747  -1.534165478  -0.341673449
  O   -1.474391421  -0.394246630   0.545379775
  C   -1.104858440   0.748083159   0.102336187
  N   -0.779507848   1.796786132  -0.258056334
  N    1.932320774  -0.130708593  -0.684378075
  H    1.501961214   0.748222436  -0.944853807
  H    2.663779877  -0.317036509  -1.357559260
  C    2.487566054  -0.037194105   0.668412279
  H    2.908653028  -1.000018552   0.956259299
  H    3.264836001   0.724115255   0.790276259
  H    1.685838663   0.194087455   1.368019831
