16
charge=0 charge_a=0 charge_b=0 selection_a=1-9 selection_b=10-16 scaling=1.0 benchmark_Eint=-3.426 benchmark_unit=kcal/mol group=CH-N
  H   -1.762133070   2.224272550   0.385520184
  H   -3.626079629   0.220287765   0.314214456
  H    0.620629276   0.958941406  -0.138482378
  H   -2.179210861  -2.031725158  -0.243630158
  C   -2.565988935   0.132147016   0.157208312
  C   -1.589543084   1.180283099   0.194523396
  C   -0.391913915   0.599793502  -0.060282527
  O   -0.557637273  -0.741277284  -0.254044427
  C   -1.886183339  -1.006390911  -0.117837798
  N    2.971889660   0.590639235  -0.346701354
  H    3.098880290   0.356902133  -1.322519228
  H    3.731920532   1.206728662  -0.091292212
  C    2.976773294  -0.618356379   0.481774695
  H    2.828836425  -0.337692576   1.523734107
  H    3.894024893  -1.213576409   0.417305903
  H    2.138331382  -1.250926431   0.195953902
