13
charge=0 charge_a=0 charge_b=0 selection_a=1-6 selection_b=7-13 scaling=0.8 benchmark_Eint=-1.097 benchmark_unit=kcal/mol group=CH-N
  H   -1.555357117   1.507334718   1.186960791
  H   -2.072379397   1.718146648  -0.495610151
  H   -0.341646914   1.500576673  -0.121508730
  C   -1.538676884  -1.341104829  -0.107141320
  N   -1.484594239  -0.186724246   0.019266037
  C   -1.357089144   1.221027813   0.156209504
  N    1.280746825   0.486953965  -0.570970473
  H    0.770917827  -0.241930206  -1.053294484
  H    2.074646240   0.724772012  -1.150253238
  C    1.720026203   0.012799932   0.743645466
  H    2.239746978   0.817488657   1.262597135
  H    2.382986230  -0.858388122   0.717652488
  H    0.846551811  -0.253730837   1.336377623
