13
charge=0 charge_a=0 charge_b=0 selection_a=1-6 selection_b=7-13 scaling=1.5 benchmark_Eint=-1.961 benchmark_unit=kcal/mol group=CH-N
  H   -1.555357117   1.507334718   1.186960791
  H   -2.072379397   1.718146648  -0.495610151
  H   -0.341646914   1.500576673  -0.121508730
  C   -1.538676884  -1.341104829  -0.107141320
  N   -1.484594239  -0.186724246   0.019266037
  C   -1.357089144   1.221027813   0.156209504
  N    2.700341347  -0.399965904  -0.964249498
  H    2.190512349  -1.128850076  -1.446573510
  H    3.494240762  -0.162147858  -1.543532264
  C    3.139620725  -0.874119938   0.350366440
  H    3.659341500  -0.069431212   0.869318110
  H    3.802580752  -1.745307992   0.324373462
  H    2.266146333  -1.140650706   0.943098598
