11
charge=0 charge_a=0 charge_b=0 selection_a=1-7 selection_b=8-11 scaling=0.85 benchmark_Eint=-3.932 benchmark_unit=kcal/mol group=CH-N
  H    1.106072405   1.441982443  -1.351704141
  H    1.328457188   2.315260346   0.190512700
  H   -0.272332719   1.594326646  -0.208746230
  C    0.806822678   1.507807239  -0.308641488
  O    1.248661687   0.293334833   0.384623530
  C    0.648520988  -0.785933049   0.050030179
  N    0.125365345  -1.779766688  -0.222719375
  N   -2.066511332   0.586946340   0.038307769
  H   -1.684875665  -0.343115043  -0.098016832
  H   -2.780725063   0.724990282  -0.665868218
  H   -2.534379228   0.588065027   0.936200059
