17
charge=0 charge_a=0 charge_b=0 selection_a=1-4 selection_b=5-17 scaling=1.25 benchmark_Eint=-3.429 benchmark_unit=kcal/mol group=CH-N
  C    2.283412483   0.000007137   0.000000046
  H    1.207338154   0.000010875   0.000000069
  C    3.481267117   0.000001134   0.000000067
  H    4.542388365  -0.000004462   0.000000095
  H   -2.984690312   0.746365021   1.292991229
  H   -1.498331135   0.182816841   2.081882025
  H   -1.498332179   1.711352929   1.199543844
  H   -1.498331814   1.711551723  -1.199260297
  H   -2.984689928   0.746579201  -1.292867933
  H   -1.498330541   0.183161844  -2.081851614
  H   -2.984671322  -1.492973161  -0.000123802
  H   -1.498307784  -1.894374761  -0.882616904
  C   -1.888019876   0.694361504   1.202903589
  N   -1.460562115  -0.000003089   0.000000063
  C   -1.888019525   0.694560905  -1.202788566
  C   -1.888002783  -1.388937888  -0.000115185
  H   -1.498308106  -1.894521013   0.882302948
