16
charge=0 charge_a=0 charge_b=0 selection_a=1-6 selection_b=7-16 scaling=0.8 benchmark_Eint=-0.149 benchmark_unit=kcal/mol group=CH-N
  H    2.004943888   1.727033527   0.875557006
  H    2.004943888   1.727033527  -0.875557006
  H    0.548632130   1.099158806   0.000000000
  C    1.635542562   1.189504088   0.000000000
  N    2.320876672  -0.117799410   0.000000000
  O    1.579852910  -1.063145924   0.000000000
  H   -0.434660036  -0.744413761  -1.266032305
  H   -2.200292460  -0.838936796  -1.261886905
  H   -1.377788899   0.500658235  -2.086643210
  H   -2.091810900   1.306777380   0.000000000
  H   -1.377788899   0.500658235   2.086643210
  H   -0.434660036  -0.744413761   1.266032305
  H   -2.200292460  -0.838936796   1.261886905
  C   -1.345899871  -0.148649612  -1.212798705
  N   -1.317831980   0.657033094   0.000000000
  C   -1.345899871  -0.148649612   1.212798705
