13
charge=0 charge_a=0 charge_b=0 selection_a=1-6 selection_b=7-13 scaling=0.85 benchmark_Eint=-2.961 benchmark_unit=kcal/mol group=CH-N
  H   -1.555357117   1.507334718   1.186960791
  H   -2.072379397   1.718146648  -0.495610151
  H   -0.341646914   1.500576673  -0.121508730
  C   -1.538676884  -1.341104829  -0.107141320
  N   -1.484594239  -0.186724246   0.019266037
  C   -1.357089144   1.221027813   0.156209504
  N    1.382146434   0.423602546  -0.599061832
  H    0.872317436  -0.305281625  -1.081385843
  H    2.176045849   0.661420593  -1.178344597
  C    1.821425812  -0.050551487   0.715554107
  H    2.341146587   0.754137238   1.234505776
  H    2.484385839  -0.921739541   0.689561129
  H    0.947951420  -0.317082256   1.308286264
