17
charge=0 charge_a=0 charge_b=0 selection_a=1-7 selection_b=8-17 scaling=1.0 benchmark_Eint=-6.432 benchmark_unit=kcal/mol group=CH-N
  H    1.843396077  -1.728471613   1.218350944
  H    1.731075415  -2.454832393  -0.409736068
  H    0.335689336  -1.528364325   0.256891953
  C    1.418217632  -1.632781568   0.222403941
  O    1.978858068  -0.436965743  -0.415198276
  C    1.612718057   0.682256790   0.085749309
  N    1.302092215   1.713447478   0.505031508
  H   -2.100654094  -0.626051376  -1.794654802
  H   -2.512508660   1.060009172  -1.458564724
  H   -0.832250109   0.601190720  -1.781525940
  H   -1.032264365   0.797223929   0.526330336
  H   -2.466984746  -0.451940514   1.905728688
  H   -3.126268515  -1.255900752   0.482137317
  H   -3.489001044   0.449230975   0.770177393
  C   -1.753591867   0.281524614  -1.297961839
  N   -1.498383267   0.002524350   0.108008468
  C   -2.706808729  -0.318892331   0.851878117
