14
charge=0 charge_a=0 charge_b=0 selection_a=1-7 selection_b=8-14 scaling=2.0 benchmark_Eint=-0.816 benchmark_unit=kcal/mol group=CH-N
  H    1.300384215   1.862983925   0.902773771
  H   -0.206479321   1.497441847   0.000000000
  H    1.300384215   1.862983925  -0.902773771
  C    0.883715621   1.433516356   0.000000000
  N    1.190457063  -0.027105697   0.000000000
  O    1.283973066  -0.580655658   1.081974411
  O    1.283973066  -0.580655658  -1.081974411
  N   -4.494198405  -0.277491577   0.000000000
  H   -5.028924248   0.005703605   0.810922096
  H   -5.028924248   0.005703605  -0.810922096
  C   -4.291530569  -1.732915593   0.000000000
  H   -3.710852122  -2.013706736  -0.876484606
  H   -5.216395477  -2.318069163   0.000000000
  H   -3.710852122  -2.013706736   0.876484606
