13
charge=0 charge_a=0 charge_b=0 selection_a=1-6 selection_b=7-13 scaling=0.95 benchmark_Eint=-4.477 benchmark_unit=kcal/mol group=CH-N
  H   -1.555357117   1.507334718   1.186960791
  H   -2.072379397   1.718146648  -0.495610151
  H   -0.341646914   1.500576673  -0.121508730
  C   -1.538676884  -1.341104829  -0.107141320
  N   -1.484594239  -0.186724246   0.019266037
  C   -1.357089144   1.221027813   0.156209504
  N    1.584945651   0.296899707  -0.655244550
  H    1.075116653  -0.431984464  -1.137568561
  H    2.378845066   0.534717754  -1.234527315
  C    2.024225029  -0.177254326   0.659371389
  H    2.543945804   0.627434399   1.178323058
  H    2.687185056  -1.048442380   0.633378411
  H    1.150750637  -0.443785095   1.252103546
