16
charge=0 charge_a=0 charge_b=0 selection_a=1-9 selection_b=10-16 scaling=2.0 benchmark_Eint=-0.377 benchmark_unit=kcal/mol group=CH-N
  H   -1.762133070   2.224272550   0.385520184
  H   -3.626079629   0.220287765   0.314214456
  H    0.620629276   0.958941406  -0.138482378
  H   -2.179210861  -2.031725158  -0.243630158
  C   -2.565988935   0.132147016   0.157208312
  C   -1.589543084   1.180283099   0.194523396
  C   -0.391913915   0.599793502  -0.060282527
  O   -0.557637273  -0.741277284  -0.254044427
  C   -1.886183339  -1.006390911  -0.117837798
  N    5.323150044   0.222337064  -0.554920330
  H    5.450140674  -0.011400038  -1.530738204
  H    6.083180916   0.838426491  -0.299511188
  C    5.328033678  -0.986658550   0.273555719
  H    5.180096809  -0.705994747   1.315515131
  H    6.245285277  -1.581878580   0.209086927
  H    4.489591766  -1.619228602  -0.012265074
