17
charge=0 charge_a=0 charge_b=0 selection_a=1-7 selection_b=8-17 scaling=1.1 benchmark_Eint=-5.405 benchmark_unit=kcal/mol group=CH-N
  H    1.811725800  -0.959621864  -1.824816914
  H    1.620174648  -2.103856651  -0.441177293
  H    0.216213655  -1.155077192  -1.011486025
  C    1.299838981  -1.173571096  -0.895509035
  N    1.593030603  -0.070001464   0.065466226
  O    1.390238388  -0.294584154   1.247298307
  O    1.970597181   0.994082981  -0.390545373
  H   -3.495778039  -0.588410528  -0.904798323
  H   -3.891726792  -0.182489807   0.768609612
  H   -3.029967336  -1.687113132   0.392044634
  H   -1.427377782  -0.131606701   1.118036631
  H   -0.921842555   1.901832925   0.083930169
  H   -2.186651997   1.608507179  -1.107700001
  H   -2.628441913   1.977864664   0.563586391
  C   -3.128269207  -0.636906833   0.121172223
  N   -1.831523300   0.018792010   0.203126162
  C   -1.899848110   1.449740758  -0.067328106
