16
charge=0 charge_a=0 charge_b=0 selection_a=1-6 selection_b=7-16 scaling=1.5 benchmark_Eint=-1.354 benchmark_unit=kcal/mol group=CH-N
  H    2.004943888   1.727033527   0.875557006
  H    2.004943888   1.727033527  -0.875557006
  H    0.548632130   1.099158806   0.000000000
  C    1.635542562   1.189504088   0.000000000
  N    2.320876672  -0.117799410   0.000000000
  O    1.579852910  -1.063145924   0.000000000
  H   -2.067816132  -1.131273759  -1.266032305
  H   -3.833448556  -1.225796794  -1.261886905
  H   -3.010944994   0.113798237  -2.086643210
  H   -3.724966996   0.919917382   0.000000000
  H   -3.010944994   0.113798237   2.086643210
  H   -2.067816132  -1.131273759   1.266032305
  H   -3.833448556  -1.225796794   1.261886905
  C   -2.979055966  -0.535509610  -1.212798705
  N   -2.950988076   0.270173096   0.000000000
  C   -2.979055966  -0.535509610   1.212798705
