16
charge=0 charge_a=0 charge_b=0 selection_a=1-6 selection_b=7-16 scaling=1.1 benchmark_Eint=-3.235 benchmark_unit=kcal/mol group=CH-N
  H    2.004943888   1.727033527   0.875557006
  H    2.004943888   1.727033527  -0.875557006
  H    0.548632130   1.099158806   0.000000000
  C    1.635542562   1.189504088   0.000000000
  N    2.320876672  -0.117799410   0.000000000
  O    1.579852910  -1.063145924   0.000000000
  H   -1.134584077  -0.910210903  -1.266032305
  H   -2.900216501  -1.004733938  -1.261886905
  H   -2.077712940   0.334861093  -2.086643210
  H   -2.791734941   1.140980238   0.000000000
  H   -2.077712940   0.334861093   2.086643210
  H   -1.134584077  -0.910210903   1.266032305
  H   -2.900216501  -1.004733938   1.261886905
  C   -2.045823912  -0.314446754  -1.212798705
  N   -2.017756021   0.491235952   0.000000000
  C   -2.045823912  -0.314446754   1.212798705
