16
charge=0 charge_a=0 charge_b=0 selection_a=1-9 selection_b=10-16 scaling=0.95 benchmark_Eint=-3.328 benchmark_unit=kcal/mol group=CH-N
  H   -1.762133070   2.224272550   0.385520184
  H   -3.626079629   0.220287765   0.314214456
  H    0.620629276   0.958941406  -0.138482378
  H   -2.179210861  -2.031725158  -0.243630158
  C   -2.565988935   0.132147016   0.157208312
  C   -1.589543084   1.180283099   0.194523396
  C   -0.391913915   0.599793502  -0.060282527
  O   -0.557637273  -0.741277284  -0.254044427
  C   -1.886183339  -1.006390911  -0.117837798
  N    2.854326641   0.609054344  -0.336290405
  H    2.981317271   0.375317242  -1.312108279
  H    3.614357513   1.225143771  -0.080881263
  C    2.859210275  -0.599941270   0.492185644
  H    2.711273406  -0.319277467   1.534145056
  H    3.776461874  -1.195161300   0.427716852
  H    2.020768363  -1.232511322   0.206364851
