16
charge=0 charge_a=0 charge_b=0 selection_a=1-6 selection_b=7-16 scaling=0.9 benchmark_Eint=-2.859 benchmark_unit=kcal/mol group=CH-N
  H    2.004943888   1.727033527   0.875557006
  H    2.004943888   1.727033527  -0.875557006
  H    0.548632130   1.099158806   0.000000000
  C    1.635542562   1.189504088   0.000000000
  N    2.320876672  -0.117799410   0.000000000
  O    1.579852910  -1.063145924   0.000000000
  H   -0.667968049  -0.799679475  -1.266032305
  H   -2.433600473  -0.894202510  -1.261886905
  H   -1.611096912   0.445392521  -2.086643210
  H   -2.325118913   1.251511666   0.000000000
  H   -1.611096912   0.445392521   2.086643210
  H   -0.667968049  -0.799679475   1.266032305
  H   -2.433600473  -0.894202510   1.261886905
  C   -1.579207884  -0.203915326  -1.212798705
  N   -1.551139993   0.601767380   0.000000000
  C   -1.579207884  -0.203915326   1.212798705
