17
charge=0 charge_a=0 charge_b=0 selection_a=1-7 selection_b=8-17 scaling=1.05 benchmark_Eint=-5.704 benchmark_unit=kcal/mol group=CH-N
  H    1.811725800  -0.959621864  -1.824816914
  H    1.620174648  -2.103856651  -0.441177293
  H    0.216213655  -1.155077192  -1.011486025
  C    1.299838981  -1.173571096  -0.895509035
  N    1.593030603  -0.070001464   0.065466226
  O    1.390238388  -0.294584154   1.247298307
  O    1.970597181   0.994082981  -0.390545373
  H   -3.402699086  -0.641768219  -0.960007968
  H   -3.798647840  -0.235847498   0.713399967
  H   -2.936888384  -1.740470823   0.336834989
  H   -1.334298830  -0.184964392   1.062826986
  H   -0.828763602   1.848475234   0.028720524
  H   -2.093573044   1.555149488  -1.162909646
  H   -2.535362960   1.924506973   0.508376746
  C   -3.035190254  -0.690264524   0.065962578
  N   -1.738444348  -0.034565681   0.147916517
  C   -1.806769158   1.396383067  -0.122537751
