17
charge=0 charge_a=0 charge_b=0 selection_a=1-4 selection_b=5-17 scaling=0.9 benchmark_Eint=-3.699 benchmark_unit=kcal/mol group=CH-N
  C    2.283412483   0.000007137   0.000000046
  H    1.207338154   0.000010875   0.000000069
  C    3.481267117   0.000001134   0.000000067
  H    4.542388365  -0.000004462   0.000000095
  H   -2.237678236   0.746368931   1.292991230
  H   -0.751319060   0.182820751   2.081882026
  H   -0.751320104   1.711356839   1.199543846
  H   -0.751319738   1.711555633  -1.199260296
  H   -2.237677852   0.746583111  -1.292867932
  H   -0.751318466   0.183165754  -2.081851612
  H   -2.237659246  -1.492969251  -0.000123800
  H   -0.751295708  -1.894370851  -0.882616902
  C   -1.141007800   0.694365414   1.202903590
  N   -0.713550040   0.000000821   0.000000064
  C   -1.141007450   0.694564815  -1.202788564
  C   -1.140990708  -1.388933978  -0.000115184
  H   -0.751296030  -1.894517103   0.882302950
