17
charge=0 charge_a=0 charge_b=0 selection_a=1-7 selection_b=8-17 scaling=1.1 benchmark_Eint=-6.087 benchmark_unit=kcal/mol group=CH-N
  H    1.843396077  -1.728471613   1.218350944
  H    1.731075415  -2.454832393  -0.409736068
  H    0.335689336  -1.528364325   0.256891953
  C    1.418217632  -1.632781568   0.222403941
  O    1.978858068  -0.436965743  -0.415198276
  C    1.612718057   0.682256790   0.085749309
  N    1.302092215   1.713447478   0.505031508
  H   -2.284061354  -0.472962508  -1.809543150
  H   -2.695915920   1.213098040  -1.473453072
  H   -1.015657369   0.754279588  -1.796414288
  H   -1.215671625   0.950312796   0.511441988
  H   -2.650392006  -0.298851646   1.890840340
  H   -3.309675775  -1.102811884   0.467248968
  H   -3.672408304   0.602319842   0.755289044
  C   -1.936999127   0.434613482  -1.312850188
  N   -1.681790527   0.155613218   0.093120120
  C   -2.890215989  -0.165803464   0.836989768
