11
charge=0 charge_a=0 charge_b=0 selection_a=1-7 selection_b=8-11 scaling=2.0 benchmark_Eint=-0.782 benchmark_unit=kcal/mol group=CH-N
  H    1.106072405   1.441982443  -1.351704141
  H    1.328457188   2.315260346   0.190512700
  H   -0.272332719   1.594326646  -0.208746230
  C    0.806822678   1.507807239  -0.308641488
  O    1.248661687   0.293334833   0.384623530
  C    0.648520988  -0.785933049   0.050030179
  N    0.125365345  -1.779766688  -0.222719375
  N   -4.493929455  -0.775979956   0.372557298
  H   -4.112293788  -1.706041339   0.236232697
  H   -5.208143186  -0.637936014  -0.331618689
  H   -4.961797351  -0.774861269   1.270449588
