17
charge=0 charge_a=0 charge_b=0 selection_a=1-7 selection_b=8-17 scaling=0.8 benchmark_Eint=-2.526 benchmark_unit=kcal/mol group=CH-N
  H    1.843396077  -1.728471613   1.218350944
  H    1.731075415  -2.454832393  -0.409736068
  H    0.335689336  -1.528364325   0.256891953
  C    1.418217632  -1.632781568   0.222403941
  O    1.978858068  -0.436965743  -0.415198276
  C    1.612718057   0.682256790   0.085749309
  N    1.302092215   1.713447478   0.505031508
  H   -1.733839573  -0.932229111  -1.764878105
  H   -2.145694139   0.753831437  -1.428788027
  H   -0.465435588   0.295012985  -1.751749243
  H   -0.665449844   0.491046194   0.556107033
  H   -2.100170225  -0.758118249   1.935505385
  H   -2.759453994  -1.562078487   0.511914014
  H   -3.122186523   0.143053240   0.799954090
  C   -1.386777346  -0.024653121  -1.268185142
  N   -1.131568746  -0.303653385   0.137785165
  C   -2.339994208  -0.625070066   0.881654814
