17
charge=0 charge_a=0 charge_b=0 selection_a=1-7 selection_b=8-17 scaling=0.8 benchmark_Eint=-1.643 benchmark_unit=kcal/mol group=CH-N
  H    1.811725800  -0.959621864  -1.824816914
  H    1.620174648  -2.103856651  -0.441177293
  H    0.216213655  -1.155077192  -1.011486025
  C    1.299838981  -1.173571096  -0.895509035
  N    1.593030603  -0.070001464   0.065466226
  O    1.390238388  -0.294584154   1.247298307
  O    1.970597181   0.994082981  -0.390545373
  H   -2.937304324  -0.908556674  -1.236056192
  H   -3.333253077  -0.502635953   0.437351743
  H   -2.471493621  -2.007259278   0.060786765
  H   -0.868904067  -0.451752847   0.786778762
  H   -0.363368840   1.581686779  -0.247327700
  H   -1.628178282   1.288361033  -1.438957870
  H   -2.069968198   1.657718518   0.232328522
  C   -2.569795492  -0.957052979  -0.210085646
  N   -1.273049585  -0.301354136  -0.128131707
  C   -1.341374395   1.129594612  -0.398585975
