13
charge=0 charge_a=0 charge_b=0 selection_a=1-6 selection_b=7-13 scaling=0.95 benchmark_Eint=-3.261 benchmark_unit=kcal/mol group=CH-N
  H    1.460874612  -1.706457457  -0.921643441
  H    2.069562482  -1.661956445   0.720247802
  H    0.352980787  -1.175969316   0.409024102
  C    1.374319670  -1.179900380   0.030490162
  N    1.899760556   0.180096078  -0.199890236
  O    1.131730578   1.061930818   0.075731870
  N   -1.734372489  -0.148789764   0.692354671
  H   -2.484353964  -0.005283017   1.355038673
  H   -1.037625876   0.565779798   0.860005463
  C   -2.229063624  -0.061464171  -0.681441928
  H   -1.398977558  -0.214878546  -1.370654125
  H   -2.703607469   0.891394314  -0.941145337
  H   -2.951241006  -0.857670660  -0.859159409
