11
charge=0 charge_a=0 charge_b=0 selection_a=1-4 selection_b=5-11 scaling=0.85 benchmark_Eint=-2.338 benchmark_unit=kcal/mol group=noHB
  N   -2.387622510   0.386855807   0.053029924
  H   -2.170349904  -0.586662948  -0.125135486
  H   -2.600934499   0.466185686   1.039693239
  H   -3.237621247   0.602395994  -0.452609222
  H   -0.572569637   1.758767361  -0.345910277
  H    0.921971694   1.536004741  -1.295912917
  H    0.981018695   2.401354822   0.247459014
  C    0.502339714   1.590111969  -0.289700059
  N    0.791152695   0.357433990   0.465704164
  N    0.257116911  -0.662209888   0.061973784
  N   -0.181266219  -1.666819298  -0.219482552
