17
charge=0 charge_a=0 charge_b=0 selection_a=1-10 selection_b=11-17 scaling=2.0 benchmark_Eint=-0.731 benchmark_unit=kcal/mol group=noHB
  H    0.892746148   0.525677958  -2.134879784
  H    2.599826895  -1.429651580  -1.355096366
  H    2.966922718  -1.085508768   1.309903428
  H    1.464741451   1.062171215   2.001399672
  N    0.967127102   1.077908212  -0.074410994
  C    1.294571110   0.311945354  -1.161610982
  C    2.155005225  -0.671687536  -0.735119488
  C    2.346802286  -0.491654861   0.662157951
  C    1.596712656   0.595575848   1.042529043
  H    0.313295932   1.839808278  -0.084076345
  H   -4.061265967  -1.961685625   1.580350638
  H   -2.791625856  -1.817474144   0.338239678
  H   -4.069491994  -3.035967428   0.171139044
  C   -3.844608395  -2.032417439   0.513780162
  N   -4.706850561  -1.121826853  -0.263069825
  N   -4.666805151   0.057290931   0.036743531
  N   -4.706418743   1.172762944   0.228578279
