11
charge=0 charge_a=0 charge_b=0 selection_a=1-4 selection_b=5-11 scaling=2.0 benchmark_Eint=-0.759 benchmark_unit=kcal/mol group=noHB
  N   -2.383382910  -0.016366239   0.000000000
  H   -2.207547256   0.561597525  -0.812976437
  H   -2.207547256   0.561597525   0.812976437
  H   -3.369455142  -0.243247669   0.000000000
  H    2.097147142  -1.682595778   0.000000000
  H    3.638669339  -1.812110619   0.903177805
  H    3.638669339  -1.812110619  -0.903177805
  C    3.160750106  -1.453469758   0.000000000
  N    3.227607457   0.037570979   0.000000000
  O    3.229783911   0.598578677  -1.081655739
  O    3.229783911   0.598578677   1.081655739
