10
charge=0 charge_a=0 charge_b=0 selection_a=1-4 selection_b=5-10 scaling=1.1 benchmark_Eint=-3.929 benchmark_unit=kcal/mol group=noHB
  N   -2.280467385   0.030994158   0.000000000
  H   -1.660112384   0.832542244   0.000000000
  H   -2.876848019   0.115781008   0.813542773
  H   -2.876848019   0.115781008  -0.813542773
  H    1.569617430  -1.753245475   0.885483571
  H    0.037361641  -1.560895727   0.000000000
  H    1.569617430  -1.753245475  -0.885483571
  C    1.101581057  -1.326884756   0.000000000
  C    1.249085187   0.118288296   0.000000000
  N    1.330024421   1.264386366   0.000000000
