10
charge=0 charge_a=0 charge_b=0 selection_a=1-4 selection_b=5-10 scaling=1.05 benchmark_Eint=-3.955 benchmark_unit=kcal/mol group=noHB
  N    2.314242557  -0.073479079   0.000000000
  H    2.909570082  -0.162864261   0.813768998
  H    2.909570082  -0.162864261  -0.813768998
  H    1.687909075  -0.869930873   0.000000000
  H    0.167417548   1.425167292   0.000000000
  H   -1.353879212   1.706707587   0.886529949
  H   -1.353879212   1.706707587  -0.886529949
  C   -1.296933228  -1.292874403   0.000000000
  N   -1.147947564  -0.139913641   0.000000000
  C   -0.908651191   1.259971132   0.000000000
