19
charge=0 charge_a=0 charge_b=0 selection_a=1-10 selection_b=11-19 scaling=1.5 benchmark_Eint=-1.478 benchmark_unit=kcal/mol group=noHB
  H    2.106739015  -2.270683049  -0.049943464
  H    4.321789811  -0.758221075   0.336447185
  H    3.500248613   1.822223654   0.196305022
  H    0.827326682   1.731219125  -0.264725037
  N    1.136642744  -0.376908997  -0.218911434
  C    2.213300466  -1.201461260  -0.030659988
  C    3.319485838  -0.408649643   0.162731811
  C    2.888659729   0.943892630   0.088817250
  C    1.534459252   0.931116587  -0.147098128
  H    0.192058852  -0.681705864  -0.375593505
  H   -3.711936878  -1.586019513   1.632836186
  H   -3.814844337  -1.897927800  -1.086654107
  H   -3.210602000   1.079204174   1.990533381
  H   -3.367331217   0.614982256  -2.075207889
  C   -3.634871361  -0.989777860  -0.539776539
  C   -3.586845567  -0.825358819   0.883738556
  C   -3.343704082   0.488593004   1.104177116
  O   -3.237994262   1.153970752  -0.079000648
  C   -3.419003404   0.239482953  -1.070703045
