19
charge=0 charge_a=0 charge_b=0 selection_a=1-10 selection_b=11-19 scaling=0.95 benchmark_Eint=-4.144 benchmark_unit=kcal/mol group=noHB
  H    2.106739015  -2.270683049  -0.049943464
  H    4.321789811  -0.758221075   0.336447185
  H    3.500248613   1.822223654   0.196305022
  H    0.827326682   1.731219125  -0.264725037
  N    1.136642744  -0.376908997  -0.218911434
  C    2.213300466  -1.201461260  -0.030659988
  C    3.319485838  -0.408649643   0.162731811
  C    2.888659729   0.943892630   0.088817250
  C    1.534459252   0.931116587  -0.147098128
  H    0.192058852  -0.681705864  -0.375593505
  H   -2.298805033  -1.607776505   1.610282157
  H   -2.401712492  -1.919684792  -1.109208136
  H   -1.797470155   1.057447182   1.967979352
  H   -1.954199372   0.593225264  -2.097761918
  C   -2.221739516  -1.011534852  -0.562330568
  C   -2.173713722  -0.847115811   0.861184527
  C   -1.930572237   0.466836012   1.081623087
  O   -1.824862417   1.132213760  -0.101554677
  C   -2.005871559   0.217725961  -1.093257074
