10
charge=0 charge_a=0 charge_b=0 selection_a=1-4 selection_b=5-10 scaling=1.25 benchmark_Eint=-2.981 benchmark_unit=kcal/mol group=noHB
  N   -2.280467385   0.030994158   0.000000000
  H   -1.660112384   0.832542244   0.000000000
  H   -2.876848019   0.115781008   0.813542773
  H   -2.876848019   0.115781008  -0.813542773
  H    1.958746872  -1.768120518   0.885483571
  H    0.426491083  -1.575770770   0.000000000
  H    1.958746872  -1.768120518  -0.885483571
  C    1.490710499  -1.341759799   0.000000000
  C    1.638214629   0.103413253   0.000000000
  N    1.719153863   1.249511323   0.000000000
