11
charge=0 charge_a=0 charge_b=0 selection_a=1-4 selection_b=5-11 scaling=1.0 benchmark_Eint=-5.249 benchmark_unit=kcal/mol group=noHB
  N   -2.383382910  -0.016366239   0.000000000
  H   -2.207547256   0.561597525  -0.812976437
  H   -2.207547256   0.561597525   0.812976437
  H   -3.369455142  -0.243247669   0.000000000
  H   -0.437899919  -1.642156769   0.000000000
  H    1.103622278  -1.771671610   0.903177805
  H    1.103622278  -1.771671610  -0.903177805
  C    0.625703045  -1.413030749   0.000000000
  N    0.692560396   0.078009988   0.000000000
  O    0.694736850   0.639017686  -1.081655739
  O    0.694736850   0.639017686   1.081655739
