16
charge=0 charge_a=0 charge_b=0 selection_a=1-10 selection_b=11-16 scaling=1.05 benchmark_Eint=-4.944 benchmark_unit=kcal/mol group=noHB
  H    0.498457064   1.920509149   0.990928586
  H    2.128755690   0.076048425   2.124836189
  H    2.773860894  -1.668604461   0.150497178
  H    1.501088191  -0.785360581  -2.074087685
  N    0.817087210   0.762205484  -0.773099298
  C    0.979968970   1.066106494   0.552373023
  C    1.801702143   0.111191290   1.100905218
  C    2.139063683  -0.804533567   0.065704958
  C    1.511092929  -0.377643876  -1.080154761
  H    0.203271328   1.246046624  -1.402011580
  H   -0.697859780  -1.344839929   0.421269122
  H   -2.152373818  -2.217526297  -0.046874477
  H   -2.174042743  -1.199356592   1.448370241
  C   -1.789023666  -1.309782476   0.436347447
  N   -2.188090487  -0.181316590  -0.420773877
  O   -2.797318020   0.683295727   0.149825916
