10
charge=0 charge_a=0 charge_b=0 selection_a=1-4 selection_b=5-10 scaling=0.8 benchmark_Eint=-0.672 benchmark_unit=kcal/mol group=noHB
  N    2.314242557  -0.073479079   0.000000000
  H    2.909570082  -0.162864261   0.813768998
  H    2.909570082  -0.162864261  -0.813768998
  H    1.687909075  -0.869930873   0.000000000
  H    0.794486027   1.390123871   0.000000000
  H   -0.726810733   1.671664166   0.886529949
  H   -0.726810733   1.671664166  -0.886529949
  C   -0.669864749  -1.327917824   0.000000000
  N   -0.520879085  -0.174957062   0.000000000
  C   -0.281582712   1.224927711   0.000000000
