14
charge=0 charge_a=0 charge_b=0 selection_a=1-8 selection_b=9-14 scaling=1.1 benchmark_Eint=-7.522 benchmark_unit=kcal/mol group=noHB
  C   -1.486188782  -0.134625060   0.000000000
  O   -0.610591207  -0.966872797   0.000000000
  O   -1.259872147   1.186977609   0.000000000
  H   -0.296310261   1.362943231   0.000000000
  C   -2.958602243  -0.441889403   0.000000000
  H   -3.110174536  -1.515490566   0.000000000
  H   -3.427434334   0.002483070  -0.876906797
  H   -3.427434334   0.002483070   0.876906797
  H    2.040126952  -1.678879192   0.000000000
  H    3.517235715  -1.221506423   0.887198334
  H    3.517235715  -1.221506423  -0.887198334
  C    1.937298067   1.340838328   0.000000000
  N    2.465721332   0.309644324   0.000000000
  C    2.916873094  -1.034028754   0.000000000
