17
charge=0 charge_a=0 charge_b=0 selection_a=1-10 selection_b=11-17 scaling=0.9 benchmark_Eint=-4.956 benchmark_unit=kcal/mol group=noHB
  H    0.892746148   0.525677958  -2.134879784
  H    2.599826895  -1.429651580  -1.355096366
  H    2.966922718  -1.085508768   1.309903428
  H    1.464741451   1.062171215   2.001399672
  N    0.967127102   1.077908212  -0.074410994
  C    1.294571110   0.311945354  -1.161610982
  C    2.155005225  -0.671687536  -0.735119488
  C    2.346802286  -0.491654861   0.662157951
  C    1.596712656   0.595575848   1.042529043
  H    0.313295932   1.839808278  -0.084076345
  H   -1.289688107  -1.637420672   1.489831215
  H   -0.020047996  -1.493209191   0.247720255
  H   -1.297914134  -2.711702475   0.080619621
  C   -1.073030535  -1.708152486   0.423260739
  N   -1.935272701  -0.797561900  -0.353589248
  N   -1.895227291   0.381555884  -0.053775892
  N   -1.934840883   1.497027897   0.138058856
