10
charge=0 charge_a=0 charge_b=0 selection_a=1-4 selection_b=5-10 scaling=0.85 benchmark_Eint=-2.497 benchmark_unit=kcal/mol group=noHB
  N    2.314242557  -0.073479079   0.000000000
  H    2.909570082  -0.162864261   0.813768998
  H    2.909570082  -0.162864261  -0.813768998
  H    1.687909075  -0.869930873   0.000000000
  H    0.669072331   1.397132555   0.000000000
  H   -0.852224429   1.678672850   0.886529949
  H   -0.852224429   1.678672850  -0.886529949
  C   -0.795278445  -1.320909140   0.000000000
  N   -0.646292781  -0.167948378   0.000000000
  C   -0.406996408   1.231936395   0.000000000
