10
charge=0 charge_a=0 charge_b=0 selection_a=1-4 selection_b=5-10 scaling=0.9 benchmark_Eint=-3.490 benchmark_unit=kcal/mol group=noHB
  N    2.314242557  -0.073479079   0.000000000
  H    2.909570082  -0.162864261   0.813768998
  H    2.909570082  -0.162864261  -0.813768998
  H    1.687909075  -0.869930873   0.000000000
  H    0.543658635   1.404141239   0.000000000
  H   -0.977638125   1.685681534   0.886529949
  H   -0.977638125   1.685681534  -0.886529949
  C   -0.920692141  -1.313900456   0.000000000
  N   -0.771706477  -0.160939694   0.000000000
  C   -0.532410104   1.238945079   0.000000000
