11
charge=0 charge_a=0 charge_b=0 selection_a=1-4 selection_b=5-11 scaling=0.9 benchmark_Eint=-4.726 benchmark_unit=kcal/mol group=noHB
  N   -2.383382910  -0.016366239   0.000000000
  H   -2.207547256   0.561597525  -0.812976437
  H   -2.207547256   0.561597525   0.812976437
  H   -3.369455142  -0.243247669   0.000000000
  H   -0.691404625  -1.638112868   0.000000000
  H    0.850117572  -1.767627709   0.903177805
  H    0.850117572  -1.767627709  -0.903177805
  C    0.372198339  -1.408986848   0.000000000
  N    0.439055690   0.082053889   0.000000000
  O    0.441232144   0.643061587  -1.081655739
  O    0.441232144   0.643061587   1.081655739
