11
charge=0 charge_a=0 charge_b=0 selection_a=1-4 selection_b=5-11 scaling=1.1 benchmark_Eint=-4.737 benchmark_unit=kcal/mol group=noHB
  N   -2.383382910  -0.016366239   0.000000000
  H   -2.207547256   0.561597525  -0.812976437
  H   -2.207547256   0.561597525   0.812976437
  H   -3.369455142  -0.243247669   0.000000000
  H   -0.184395213  -1.646200670   0.000000000
  H    1.357126984  -1.775715511   0.903177805
  H    1.357126984  -1.775715511  -0.903177805
  C    0.879207751  -1.417074650   0.000000000
  N    0.946065102   0.073966087   0.000000000
  O    0.948241556   0.634973785  -1.081655739
  O    0.948241556   0.634973785   1.081655739
