11
charge=0 charge_a=0 charge_b=0 selection_a=1-4 selection_b=5-11 scaling=1.25 benchmark_Eint=-2.607 benchmark_unit=kcal/mol group=noHB
  N   -2.387622510   0.386855807   0.053029924
  H   -2.170349904  -0.586662948  -0.125135486
  H   -2.600934499   0.466185686   1.039693239
  H   -3.237621247   0.602395994  -0.452609222
  H    0.455541364   1.612548737  -0.375835672
  H    1.950082695   1.389786117  -1.325838312
  H    2.009129696   2.255136198   0.217533619
  C    1.530450715   1.443893345  -0.319625454
  N    1.819263696   0.211215366   0.435778769
  N    1.285227912  -0.808428512   0.032048389
  N    0.846844782  -1.813037922  -0.249407947
