16
charge=0 charge_a=0 charge_b=0 selection_a=1-10 selection_b=11-16 scaling=1.0 benchmark_Eint=-6.087 benchmark_unit=kcal/mol group=noHB
  H   -0.863373502  -0.769629189   2.104040408
  H   -2.526882845   1.237301901   1.356054933
  H   -2.526882845   1.237301901  -1.356054933
  H   -0.863373502  -0.769629189  -2.104040408
  N   -0.649450828  -1.049948233  -0.000000000
  C   -1.140562166  -0.436653610   1.120801913
  C   -1.974175437   0.577752539   0.710811092
  C   -1.974175437   0.577752539  -0.710811092
  C   -1.140562166  -0.436653610  -1.120801913
  H    0.050197596  -1.770106031   0.000000000
  H    0.670707768   1.355988531  -0.000000000
  H    2.088533510   1.955984792  -0.886803823
  H    2.088533510   1.955984792   0.886803823
  C    2.699059614  -0.981273339   0.000000000
  N    2.305936778   0.112019511   0.000000000
  C    1.756623860   1.420842461  -0.000000000
