19
charge=0 charge_a=0 charge_b=0 selection_a=1-10 selection_b=11-19 scaling=1.1 benchmark_Eint=-3.773 benchmark_unit=kcal/mol group=noHB
  H    2.106739015  -2.270683049  -0.049943464
  H    4.321789811  -0.758221075   0.336447185
  H    3.500248613   1.822223654   0.196305022
  H    0.827326682   1.731219125  -0.264725037
  N    1.136642744  -0.376908997  -0.218911434
  C    2.213300466  -1.201461260  -0.030659988
  C    3.319485838  -0.408649643   0.162731811
  C    2.888659729   0.943892630   0.088817250
  C    1.534459252   0.931116587  -0.147098128
  H    0.192058852  -0.681705864  -0.375593505
  H   -2.684204627  -1.601842780   1.616433256
  H   -2.787112086  -1.913751067  -1.103057037
  H   -2.182869749   1.063380907   1.974130451
  H   -2.339598966   0.599158989  -2.091610819
  C   -2.607139110  -1.005601127  -0.556179469
  C   -2.559113316  -0.841182086   0.867335626
  C   -2.315971831   0.472769737   1.087774186
  O   -2.210262011   1.138147485  -0.095403578
  C   -2.391271153   0.223659686  -1.087105975
