19
charge=0 charge_a=0 charge_b=0 selection_a=1-10 selection_b=11-19 scaling=0.85 benchmark_Eint=-2.449 benchmark_unit=kcal/mol group=noHB
  H    2.106739015  -2.270683049  -0.049943464
  H    4.321789811  -0.758221075   0.336447185
  H    3.500248613   1.822223654   0.196305022
  H    0.827326682   1.731219125  -0.264725037
  N    1.136642744  -0.376908997  -0.218911434
  C    2.213300466  -1.201461260  -0.030659988
  C    3.319485838  -0.408649643   0.162731811
  C    2.888659729   0.943892630   0.088817250
  C    1.534459252   0.931116587  -0.147098128
  H    0.192058852  -0.681705864  -0.375593505
  H   -2.041871970  -1.611732322   1.606181424
  H   -2.144779429  -1.923640609  -1.113308869
  H   -1.540537092   1.053491365   1.963878619
  H   -1.697266309   0.589269447  -2.101862651
  C   -1.964806453  -1.015490669  -0.566431301
  C   -1.916780659  -0.851071628   0.857083794
  C   -1.673639174   0.462880195   1.077522354
  O   -1.567929354   1.128257943  -0.105655410
  C   -1.748938496   0.213770144  -1.097357807
