16
charge=0 charge_a=0 charge_b=0 selection_a=1-10 selection_b=11-16 scaling=0.9 benchmark_Eint=-5.256 benchmark_unit=kcal/mol group=noHB
  H   -0.863373502  -0.769629189   2.104040408
  H   -2.526882845   1.237301901   1.356054933
  H   -2.526882845   1.237301901  -1.356054933
  H   -0.863373502  -0.769629189  -2.104040408
  N   -0.649450828  -1.049948233  -0.000000000
  C   -1.140562166  -0.436653610   1.120801913
  C   -1.974175437   0.577752539   0.710811092
  C   -1.974175437   0.577752539  -0.710811092
  C   -1.140562166  -0.436653610  -1.120801913
  H    0.050197596  -1.770106031   0.000000000
  H    0.398707629   1.319527199   0.000000000
  H    1.816533371   1.919523460  -0.886803823
  H    1.816533371   1.919523460   0.886803823
  C    2.427059475  -1.017734671   0.000000000
  N    2.033936639   0.075558179   0.000000000
  C    1.484623721   1.384381129   0.000000000
