17
charge=0 charge_a=0 charge_b=0 selection_a=1-10 selection_b=11-17 scaling=0.8 benchmark_Eint=-0.818 benchmark_unit=kcal/mol group=noHB
  H    0.892746148   0.525677958  -2.134879784
  H    2.599826895  -1.429651580  -1.355096366
  H    2.966922718  -1.085508768   1.309903428
  H    1.464741451   1.062171215   2.001399672
  N    0.967127102   1.077908212  -0.074410994
  C    1.294571110   0.311945354  -1.161610982
  C    2.155005225  -0.671687536  -0.735119488
  C    2.346802286  -0.491654861   0.662157951
  C    1.596712656   0.595575848   1.042529043
  H    0.313295932   1.839808278  -0.084076345
  H   -1.037726484  -1.607942040   1.481602176
  H    0.231913627  -1.463730559   0.239491216
  H   -1.045952511  -2.682223843   0.072390582
  C   -0.821068912  -1.678673854   0.415031700
  N   -1.683311078  -0.768083268  -0.361818287
  N   -1.643265668   0.411034516  -0.062004931
  N   -1.682879260   1.526506529   0.129829817
