21
charge=0 charge_a=0 charge_b=0 selection_a=1-14 selection_b=15-21 scaling=1.0 benchmark_Eint=-6.252 benchmark_unit=kcal/mol group=noHB
  H    0.265988955  -1.349753856   1.788792556
  H    3.083792602   1.751461055   0.887364926
  H    1.777264289   0.438001389   2.536569909
  H    1.336219962  -0.548399536  -2.278194628
  H   -0.868856741  -2.365698483  -0.083504588
  H    2.844898281   1.238669535  -1.527656468
  H   -0.437126418  -2.069078287  -1.671256147
  C    2.419357518   0.966411869   0.558346471
  C    1.686552199   0.227027840   1.480066611
  C    0.832815027  -0.783241093   1.062845029
  C    0.694330660  -1.079222677  -0.298025177
  C    1.433986893  -0.332987933  -1.222436739
  C    2.284400984   0.674653673  -0.795081947
  N   -0.125541214  -2.119154914  -0.716111434
  H   -1.697792878   2.660426162   0.466097705
  H   -0.272003481   1.691316765   0.012997277
  H   -1.118730254   2.655464470  -1.207786432
  C   -1.244224669   2.050997319  -0.316903898
  N   -2.128905681   0.932631889  -0.690502094
  N   -2.377357533   0.117472722   0.181361821
  N   -2.673681311  -0.704174105   0.900721046
