21
charge=0 charge_a=0 charge_b=0 selection_a=1-14 selection_b=15-21 scaling=0.95 benchmark_Eint=-6.188 benchmark_unit=kcal/mol group=noHB
  H    0.265988955  -1.349753856   1.788792556
  H    3.083792602   1.751461055   0.887364926
  H    1.777264289   0.438001389   2.536569909
  H    1.336219962  -0.548399536  -2.278194628
  H   -0.868856741  -2.365698483  -0.083504588
  H    2.844898281   1.238669535  -1.527656468
  H   -0.437126418  -2.069078287  -1.671256147
  C    2.419357518   0.966411869   0.558346471
  C    1.686552199   0.227027840   1.480066611
  C    0.832815027  -0.783241093   1.062845029
  C    0.694330660  -1.079222677  -0.298025177
  C    1.433986893  -0.332987933  -1.222436739
  C    2.284400984   0.674653673  -0.795081947
  N   -0.125541214  -2.119154914  -0.716111434
  H   -1.571491169   2.621519149   0.465092553
  H   -0.145701772   1.652409752   0.011992125
  H   -0.992428545   2.616557457  -1.208791584
  C   -1.117922960   2.012090306  -0.317909050
  N   -2.002603972   0.893724876  -0.691507246
  N   -2.251055824   0.078565709   0.180356669
  N   -2.547379602  -0.743081118   0.899715894
