21
charge=0 charge_a=0 charge_b=0 selection_a=1-12 selection_b=13-21 scaling=1.5 benchmark_Eint=-1.800 benchmark_unit=kcal/mol group=noHB
  C   -2.202437420  -1.121640054  -0.547598722
  H   -2.501713287  -2.045528869  -1.021805372
  C   -2.039859271  -1.068202932   0.832123302
  H   -2.210287952  -1.951543990   1.430844306
  C   -1.654456262   0.120320597   1.441804128
  H   -1.523020104   0.159685928   2.513577364
  C   -1.432307101   1.255948443   0.672250795
  H   -1.129788769   2.179067462   1.145528672
  C   -1.594579887   1.203711598  -0.708111083
  H   -1.422437009   2.087019144  -1.306680894
  C   -1.979170854   0.014588476  -1.318692315
  H   -2.104368498  -0.026531124  -2.391295219
  H    1.801198109  -0.523854485  -0.602876540
  H    2.769566788  -1.932392600  -0.363702451
  H    3.336585245   1.635467646   0.887270512
  H    2.773710166   1.617829775  -0.785308149
  H    4.508638096   1.791014275  -0.418875842
  O    4.856388227  -0.694230543   0.192129291
  C    3.791448158  -0.190968270  -0.112729432
  N    2.705955999  -0.934196931  -0.458010106
  C    3.580739221   1.310016509  -0.124259015
