19
charge=0 charge_a=0 charge_b=0 selection_a=1-12 selection_b=13-19 scaling=0.95 benchmark_Eint=-3.600 benchmark_unit=kcal/mol group=noHB
  C   -1.961295621   0.898571694  -0.614854544
  H   -2.455537746   1.756633737  -1.048214251
  C   -2.062288414   0.654401340   0.750182166
  H   -2.635684232   1.321815986   1.377964123
  C   -1.426643004  -0.450018736   1.306877484
  H   -1.506370955  -0.641443880   2.367762297
  C   -0.689756082  -1.308231602   0.498830196
  H   -0.191716965  -2.164717841   0.930496679
  C   -0.585666365  -1.061971960  -0.865342881
  H    0.002005838  -1.720144377  -1.488440369
  C   -1.222608090   0.040364229  -1.422007681
  H   -1.139119629   0.233406638  -2.482086318
  H    2.051555832   2.187128758   0.876068510
  H    0.558985146   1.472038404   0.292798789
  H    1.891968226   1.774968203  -0.855264882
  H    1.956575000  -0.264421634   1.479680782
  C    1.641613494   1.473188915   0.157942257
  C    2.176027195   0.106962995   0.458463172
  O    2.802189938  -0.574706473  -0.311181555
