27
charge=0 charge_a=0 charge_b=0 selection_a=1-14 selection_b=15-27 scaling=0.95 benchmark_Eint=-7.216 benchmark_unit=kcal/mol group=noHB
  H   -1.286321272   1.504334767   1.849873674
  H   -3.751402872   1.433844294  -1.654482227
  H   -2.667558773   2.680356712   0.195043989
  H   -2.112247436  -2.212565321  -0.106886651
  H   -0.127582615  -0.532309161   2.390280843
  H   -3.463880517  -1.025806139  -1.785756132
  H   -0.403771461  -1.967551554   1.594792915
  C   -3.153084600   0.913475691  -0.921733008
  C   -2.544440325   1.608990982   0.118423158
  C   -1.768982272   0.948872953   1.057261987
  C   -1.581620430  -0.435279185   0.978934754
  C   -2.215702896  -1.136534317  -0.055170971
  C   -2.986927351  -0.464108205  -0.994589159
  N   -0.808162860  -1.103457421   1.917082139
  H    2.938033072  -2.041153931   0.022383587
  H    3.787554818   2.132791602   0.568415535
  H    4.471081403  -0.240421328   0.764815890
  H    0.050977516   0.892183182  -1.127598933
  H   -0.280471625  -1.372652924  -1.176501549
  H    1.569217933   2.686601751  -0.386396363
  C    3.122462323   1.346187140   0.243687523
  C    3.504206074   0.013014316   0.353189952
  C    2.653596369  -1.002159970  -0.059799405
  C    1.408029060  -0.682639956  -0.593020735
  C    1.020161919   0.648740311  -0.715329782
  C    1.878590890   1.655090396  -0.292609771
  O    0.601142996  -1.712856332  -0.979403100
