21
charge=0 charge_a=0 charge_b=0 selection_a=1-12 selection_b=13-21 scaling=0.95 benchmark_Eint=-4.470 benchmark_unit=kcal/mol group=noHB
  C   -2.202437420  -1.121640054  -0.547598722
  H   -2.501713287  -2.045528869  -1.021805372
  C   -2.039859271  -1.068202932   0.832123302
  H   -2.210287952  -1.951543990   1.430844306
  C   -1.654456262   0.120320597   1.441804128
  H   -1.523020104   0.159685928   2.513577364
  C   -1.432307101   1.255948443   0.672250795
  H   -1.129788769   2.179067462   1.145528672
  C   -1.594579887   1.203711598  -0.708111083
  H   -1.422437009   2.087019144  -1.306680894
  C   -1.979170854   0.014588476  -1.318692315
  H   -2.104368498  -0.026531124  -2.391295219
  H    0.357408660  -0.470281157  -0.553657175
  H    1.325777339  -1.878819272  -0.314483086
  H    1.892795796   1.689040974   0.936489877
  H    1.329920717   1.671403103  -0.736088784
  H    3.064848647   1.844587603  -0.369656477
  O    3.412598778  -0.640657215   0.241348656
  C    2.347658709  -0.137394942  -0.063510067
  N    1.262166550  -0.880623603  -0.408790741
  C    2.136949772   1.363589837  -0.075039650
