20
charge=0 charge_a=0 charge_b=0 selection_a=1-14 selection_b=15-20 scaling=1.05 benchmark_Eint=-5.411 benchmark_unit=kcal/mol group=noHB
  H    0.445894970  -0.689389034  -1.505542257
  H   -3.254105838  -1.864926512   0.309236017
  H   -1.274447445  -2.393077165  -1.087743921
  H   -1.757948248   2.111129825   0.868103579
  H    1.129157389   1.592787175  -1.258888667
  H   -3.484072750   0.408993367   1.270885424
  H    0.185095398   2.738458584  -0.483957079
  C   -2.497789111  -1.115875612   0.127427735
  C   -1.386076851  -1.409075738  -0.653850476
  C   -0.413492264  -0.449929222  -0.895226924
  C   -0.533354816   0.831419621  -0.347841524
  C   -1.654422578   1.124500809   0.435527755
  C   -2.623982373   0.160166002   0.664896794
  N    0.477083588   1.776340469  -0.514390158
  H    1.504610390  -1.202989509   1.512787715
  H    2.973896125  -0.602836188   2.315330172
  H    1.782406847   0.539273737   1.641947368
  C    3.457025000  -0.404491194  -0.778336351
  N    2.943371192  -0.431814812   0.263640043
  C    2.265079661  -0.425884000   1.509621023
