19
charge=0 charge_a=0 charge_b=0 selection_a=1-12 selection_b=13-19 scaling=1.25 benchmark_Eint=-2.420 benchmark_unit=kcal/mol group=noHB
  C   -1.961295621   0.898571694  -0.614854544
  H   -2.455537746   1.756633737  -1.048214251
  C   -2.062288414   0.654401340   0.750182166
  H   -2.635684232   1.321815986   1.377964123
  C   -1.426643004  -0.450018736   1.306877484
  H   -1.506370955  -0.641443880   2.367762297
  C   -0.689756082  -1.308231602   0.498830196
  H   -0.191716965  -2.164717841   0.930496679
  C   -0.585666365  -1.061971960  -0.865342881
  H    0.002005838  -1.720144377  -1.488440369
  C   -1.222608090   0.040364229  -1.422007681
  H   -1.139119629   0.233406638  -2.482086318
  H    2.903796799   2.318604545   0.913178054
  H    1.411226113   1.603514191   0.329908333
  H    2.744209193   1.906443990  -0.818155338
  H    2.808815967  -0.132945847   1.516790326
  C    2.493854461   1.604664702   0.195051801
  C    3.028268162   0.238438782   0.495572716
  O    3.654430905  -0.443230686  -0.274072011
