21
charge=0 charge_a=0 charge_b=0 selection_a=1-12 selection_b=13-21 scaling=1.1 benchmark_Eint=-4.212 benchmark_unit=kcal/mol group=noHB
  C   -2.202437420  -1.121640054  -0.547598722
  H   -2.501713287  -2.045528869  -1.021805372
  C   -2.039859271  -1.068202932   0.832123302
  H   -2.210287952  -1.951543990   1.430844306
  C   -1.654456262   0.120320597   1.441804128
  H   -1.523020104   0.159685928   2.513577364
  C   -1.432307101   1.255948443   0.672250795
  H   -1.129788769   2.179067462   1.145528672
  C   -1.594579887   1.203711598  -0.708111083
  H   -1.422437009   2.087019144  -1.306680894
  C   -1.979170854   0.014588476  -1.318692315
  H   -2.104368498  -0.026531124  -2.391295219
  H    0.751169419  -0.484892065  -0.567080638
  H    1.719538098  -1.893430180  -0.327906549
  H    2.286556555   1.674430066   0.923066414
  H    1.723681476   1.656792195  -0.749512247
  H    3.458609406   1.829976695  -0.383079940
  O    3.806359537  -0.655268123   0.227925193
  C    2.741419468  -0.152005850  -0.076933530
  N    1.655927309  -0.895234511  -0.422214204
  C    2.530710531   1.348978929  -0.088463113
