10
charge=0 charge_a=0 charge_b=0 selection_a=1-4 selection_b=5-10 scaling=0.95 benchmark_Eint=-3.168 benchmark_unit=kcal/mol group=noHB
  N   -2.535701752  -0.201957374  -0.066761933
  H   -2.899054292  -0.872559294  -0.732356396
  H   -3.272024441  -0.021772274   0.604022398
  H   -1.775956035  -0.653369578   0.430693626
  H   -0.555815998   1.319033384  -0.528454888
  H    0.436517430   1.792286383   0.839875662
  H    1.238816935   1.505114062  -0.753073442
  C    0.434085729   1.208913178  -0.082642548
  N    0.548948258  -0.205298830   0.314054079
  O    1.494247251  -0.779540628  -0.150737000
