19
charge=0 charge_a=0 charge_b=0 selection_a=1-12 selection_b=13-19 scaling=2.0 benchmark_Eint=-0.396 benchmark_unit=kcal/mol group=noHB
  C   -1.961295621   0.898571694  -0.614854544
  H   -2.455537746   1.756633737  -1.048214251
  C   -2.062288414   0.654401340   0.750182166
  H   -2.635684232   1.321815986   1.377964123
  C   -1.426643004  -0.450018736   1.306877484
  H   -1.506370955  -0.641443880   2.367762297
  C   -0.689756082  -1.308231602   0.498830196
  H   -0.191716965  -2.164717841   0.930496679
  C   -0.585666365  -1.061971960  -0.865342881
  H    0.002005838  -1.720144377  -1.488440369
  C   -1.222608090   0.040364229  -1.422007681
  H   -1.139119629   0.233406638  -2.482086318
  H    5.034399218   2.647294014   1.005951916
  H    3.541828532   1.932203660   0.422682195
  H    4.874811612   2.235133459  -0.725381476
  H    4.939418386   0.195743622   1.609564188
  C    4.624456880   1.933354171   0.287825663
  C    5.158870581   0.567128251   0.588346578
  O    5.785033324  -0.114541217  -0.181298149
