21
charge=0 charge_a=0 charge_b=0 selection_a=1-14 selection_b=15-21 scaling=1.0 benchmark_Eint=-7.925 benchmark_unit=kcal/mol group=noHB
  H   -0.823330778  -0.965665730   2.140190218
  H   -3.142158618   1.934550581   0.000000000
  H   -2.361192579   0.950548071   2.139423278
  H   -0.823330778  -0.965665730  -2.140190218
  H    0.695068258  -2.302650207   0.829905493
  H   -2.361192579   0.950548071  -2.139423278
  H    0.695068258  -2.302650207  -0.829905493
  C   -2.468909582   1.090234694   0.000000000
  C   -2.031042598   0.534072547   1.197902257
  C   -1.166546296  -0.549569381   1.202829073
  C   -0.717270051  -1.107669443  -0.000000000
  C   -1.166546296  -0.549569381  -1.202829073
  C   -2.031042598   0.534072547  -1.197902257
  N    0.132887227  -2.205158397  -0.000000000
  H    1.636489729   2.335168395   0.903071245
  H    0.283044006   1.604610983  -0.000000000
  H    1.636489729   2.335168395  -0.903071245
  C    1.350000686   1.811128595  -0.000000000
  N    2.038583781   0.485558654  -0.000000000
  O    2.282911181  -0.021488818  -1.080962168
  O    2.282911181  -0.021488818   1.080962168
