10
charge=0 charge_a=0 charge_b=0 selection_a=1-4 selection_b=5-10 scaling=1.25 benchmark_Eint=-2.292 benchmark_unit=kcal/mol group=noHB
  N   -2.535701752  -0.201957374  -0.066761933
  H   -2.899054292  -0.872559294  -0.732356396
  H   -3.272024441  -0.021772274   0.604022398
  H   -1.775956035  -0.653369578   0.430693626
  H    0.188702430   1.394101842  -0.517672808
  H    1.181035858   1.867354841   0.850657742
  H    1.983335363   1.580182520  -0.742291362
  C    1.178604157   1.283981636  -0.071860468
  N    1.293466686  -0.130230372   0.324836159
  O    2.238765679  -0.704472170  -0.139954920
