20
charge=0 charge_a=0 charge_b=0 selection_a=1-14 selection_b=15-20 scaling=1.25 benchmark_Eint=-4.762 benchmark_unit=kcal/mol group=noHB
  H   -0.135622074  -0.574959019   2.054292583
  H    2.785560759   1.973357746   0.224019735
  H    1.357705580   1.374526154   2.162618499
  H    1.199750872  -1.372997801  -1.933025804
  H   -1.263274849  -2.128372605   0.532318652
  H    2.694979180   0.573527581  -1.821417073
  H   -0.587694598  -2.580758787  -0.913837830
  C    2.128831326   1.117453391   0.175858954
  C    1.327086928   0.777616703   1.261451981
  C    0.484928814  -0.321068032   1.206235883
  C    0.421352789  -1.113029399   0.052477100
  C    1.234403562  -0.771185134  -1.034250872
  C    2.076893619   0.329357387  -0.968498955
  N   -0.405477130  -2.227380428   0.011106247
  H   -1.177577863   1.742428246  -0.952532890
  H   -2.079005825   2.772412184   0.162940329
  H   -2.667458466   2.547572297  -1.493577685
  C   -2.174618665   2.060392890  -0.654132637
  C   -2.948306256   0.910071494  -0.220599057
  N   -3.552481541  -0.005814026   0.119596285
