20
charge=0 charge_a=0 charge_b=0 selection_a=1-14 selection_b=15-20 scaling=0.8 benchmark_Eint=-1.739 benchmark_unit=kcal/mol group=noHB
  H    0.445894970  -0.689389034  -1.505542257
  H   -3.254105838  -1.864926512   0.309236017
  H   -1.274447445  -2.393077165  -1.087743921
  H   -1.757948248   2.111129825   0.868103579
  H    1.129157389   1.592787175  -1.258888667
  H   -3.484072750   0.408993367   1.270885424
  H    0.185095398   2.738458584  -0.483957079
  C   -2.497789111  -1.115875612   0.127427735
  C   -1.386076851  -1.409075738  -0.653850476
  C   -0.413492264  -0.449929222  -0.895226924
  C   -0.533354816   0.831419621  -0.347841524
  C   -1.654422578   1.124500809   0.435527755
  C   -2.623982373   0.160166002   0.664896794
  N    0.477083588   1.776340469  -0.514390158
  H    0.838915565  -1.103944373   1.409785184
  H    2.308201300  -0.503791052   2.212327641
  H    1.116712022   0.638318873   1.538944837
  C    2.791330175  -0.305446058  -0.881338882
  N    2.277676367  -0.332769676   0.160637512
  C    1.599384836  -0.326838864   1.406618492
