23
charge=0 charge_a=0 charge_b=0 selection_a=1-14 selection_b=15-23 scaling=1.5 benchmark_Eint=-1.542 benchmark_unit=kcal/mol group=noHB
  H   -1.170386512  -1.648716271   1.625785946
  H   -3.879679374  -0.671950281  -1.547882025
  H   -2.970225256  -2.302416911   0.084555255
  H   -1.154243956   2.283145215  -0.062992570
  H    0.560585591  -0.017186618   2.085111988
  H   -2.957442761   1.629503481  -1.599947656
  H    0.524774873   1.521463617   1.470701251
  C   -3.090724168  -0.383642524  -0.869170381
  C   -2.578403204  -1.295280327   0.047819728
  C   -1.564797840  -0.929994323   0.919773071
  C   -1.034417389   0.363543591   0.890569141
  C   -1.557085174   1.279722467  -0.026876103
  C   -2.572031217   0.906008920  -0.894886749
  N   -0.029208695   0.738825708   1.777407936
  H    5.363962280  -1.157782361   0.705857855
  H    3.311493285  -2.487573017  -0.529955264
  H    5.039352288   1.448818219  -0.059865456
  H    1.953836264  -0.537646770  -1.879656340
  C    3.533213711  -1.436916747  -0.580244975
  C    4.603388893  -0.740192559   0.070712686
  C    4.476420838   0.561858812  -0.282085342
  O    3.402300853   0.723677030  -1.105025327
  C    2.840333790  -0.504281515  -1.275711781
