21
charge=0 charge_a=0 charge_b=0 selection_a=1-12 selection_b=13-21 scaling=0.85 benchmark_Eint=-2.706 benchmark_unit=kcal/mol group=noHB
  C   -2.202437420  -1.121640054  -0.547598722
  H   -2.501713287  -2.045528869  -1.021805372
  C   -2.039859271  -1.068202932   0.832123302
  H   -2.210287952  -1.951543990   1.430844306
  C   -1.654456262   0.120320597   1.441804128
  H   -1.523020104   0.159685928   2.513577364
  C   -1.432307101   1.255948443   0.672250795
  H   -1.129788769   2.179067462   1.145528672
  C   -1.594579887   1.203711598  -0.708111083
  H   -1.422437009   2.087019144  -1.306680894
  C   -1.979170854   0.014588476  -1.318692315
  H   -2.104368498  -0.026531124  -2.391295219
  H    0.094901487  -0.460540552  -0.544708200
  H    1.063270166  -1.869078667  -0.305534111
  H    1.630288623   1.698781579   0.945438852
  H    1.067413544   1.681143708  -0.727139809
  H    2.802341474   1.854328208  -0.360707502
  O    3.150091605  -0.630916610   0.250297631
  C    2.085151536  -0.127654337  -0.054561092
  N    0.999659377  -0.870882998  -0.399841766
  C    1.874442599   1.373330442  -0.066090675
