21
charge=0 charge_a=0 charge_b=0 selection_a=1-12 selection_b=13-21 scaling=0.8 benchmark_Eint=-0.456 benchmark_unit=kcal/mol group=noHB
  C   -2.202437420  -1.121640054  -0.547598722
  H   -2.501713287  -2.045528869  -1.021805372
  C   -2.039859271  -1.068202932   0.832123302
  H   -2.210287952  -1.951543990   1.430844306
  C   -1.654456262   0.120320597   1.441804128
  H   -1.523020104   0.159685928   2.513577364
  C   -1.432307101   1.255948443   0.672250795
  H   -1.129788769   2.179067462   1.145528672
  C   -1.594579887   1.203711598  -0.708111083
  H   -1.422437009   2.087019144  -1.306680894
  C   -1.979170854   0.014588476  -1.318692315
  H   -2.104368498  -0.026531124  -2.391295219
  H   -0.036352099  -0.455670250  -0.540233712
  H    0.932016580  -1.864208365  -0.301059623
  H    1.499035037   1.703651881   0.949913340
  H    0.936159958   1.686014010  -0.722665321
  H    2.671087888   1.859198510  -0.356233014
  O    3.018838019  -0.626046308   0.254772119
  C    1.953897950  -0.122784035  -0.050086604
  N    0.868405791  -0.866012696  -0.395367278
  C    1.743189013   1.378200744  -0.061616187
