23
charge=0 charge_a=0 charge_b=0 selection_a=1-14 selection_b=15-23 scaling=1.05 benchmark_Eint=-4.138 benchmark_unit=kcal/mol group=noHB
  H   -1.170386512  -1.648716271   1.625785946
  H   -3.879679374  -0.671950281  -1.547882025
  H   -2.970225256  -2.302416911   0.084555255
  H   -1.154243956   2.283145215  -0.062992570
  H    0.560585591  -0.017186618   2.085111988
  H   -2.957442761   1.629503481  -1.599947656
  H    0.524774873   1.521463617   1.470701251
  C   -3.090724168  -0.383642524  -0.869170381
  C   -2.578403204  -1.295280327   0.047819728
  C   -1.564797840  -0.929994323   0.919773071
  C   -1.034417389   0.363543591   0.890569141
  C   -1.557085174   1.279722467  -0.026876103
  C   -2.572031217   0.906008920  -0.894886749
  N   -0.029208695   0.738825708   1.777407936
  H    4.102847595  -1.075783371   0.924169946
  H    2.050378600  -2.405574027  -0.311643173
  H    3.778237603   1.530817209   0.158446635
  H    0.692721579  -0.455647780  -1.661344249
  C    2.272099026  -1.354917757  -0.361932884
  C    3.342274208  -0.658193569   0.289024777
  C    3.215306153   0.643857802  -0.063773251
  O    2.141186168   0.805676020  -0.886713236
  C    1.579219105  -0.422282525  -1.057399690
