20
charge=0 charge_a=0 charge_b=0 selection_a=1-14 selection_b=15-20 scaling=1.1 benchmark_Eint=-6.243 benchmark_unit=kcal/mol group=noHB
  H   -0.135622074  -0.574959019   2.054292583
  H    2.785560759   1.973357746   0.224019735
  H    1.357705580   1.374526154   2.162618499
  H    1.199750872  -1.372997801  -1.933025804
  H   -1.263274849  -2.128372605   0.532318652
  H    2.694979180   0.573527581  -1.821417073
  H   -0.587694598  -2.580758787  -0.913837830
  C    2.128831326   1.117453391   0.175858954
  C    1.327086928   0.777616703   1.261451981
  C    0.484928814  -0.321068032   1.206235883
  C    0.421352789  -1.113029399   0.052477100
  C    1.234403562  -0.771185134  -1.034250872
  C    2.076893619   0.329357387  -0.968498955
  N   -0.405477130  -2.227380428   0.011106247
  H   -0.816929053   1.611054008  -0.918293967
  H   -1.718357015   2.641037946   0.197179252
  H   -2.306809656   2.416198059  -1.459338762
  C   -1.813969855   1.929018652  -0.619893714
  C   -2.587657446   0.778697256  -0.186360134
  N   -3.191832731  -0.137188264   0.153835208
