10
charge=0 charge_a=0 charge_b=0 selection_a=1-4 selection_b=5-10 scaling=2.0 benchmark_Eint=-0.470 benchmark_unit=kcal/mol group=noHB
  N   -2.535701752  -0.201957374  -0.066761933
  H   -2.899054292  -0.872559294  -0.732356396
  H   -3.272024441  -0.021772274   0.604022398
  H   -1.775956035  -0.653369578   0.430693626
  H    2.049998498   1.581772986  -0.490717606
  H    3.042331926   2.055025985   0.877612944
  H    3.844631431   1.767853664  -0.715336160
  C    3.039900225   1.471652780  -0.044905266
  N    3.154762754   0.057440772   0.351791361
  O    4.100061747  -0.516801026  -0.112999718
