27
charge=0 charge_a=0 charge_b=0 selection_a=1-14 selection_b=15-27 scaling=0.9 benchmark_Eint=-6.544 benchmark_unit=kcal/mol group=noHB
  H   -1.286321272   1.504334767   1.849873674
  H   -3.751402872   1.433844294  -1.654482227
  H   -2.667558773   2.680356712   0.195043989
  H   -2.112247436  -2.212565321  -0.106886651
  H   -0.127582615  -0.532309161   2.390280843
  H   -3.463880517  -1.025806139  -1.785756132
  H   -0.403771461  -1.967551554   1.594792915
  C   -3.153084600   0.913475691  -0.921733008
  C   -2.544440325   1.608990982   0.118423158
  C   -1.768982272   0.948872953   1.057261987
  C   -1.581620430  -0.435279185   0.978934754
  C   -2.215702896  -1.136534317  -0.055170971
  C   -2.986927351  -0.464108205  -0.994589159
  N   -0.808162860  -1.103457421   1.917082139
  H    2.821575754  -2.040167332   0.041093565
  H    3.671097500   2.133778201   0.587125513
  H    4.354624085  -0.239434729   0.783525868
  H   -0.065479802   0.893169781  -1.108888955
  H   -0.396928943  -1.371666325  -1.157791571
  H    1.452760615   2.687588350  -0.367686385
  C    3.006005005   1.347173739   0.262397501
  C    3.387748756   0.014000915   0.371899930
  C    2.537139051  -1.001173371  -0.041089427
  C    1.291571742  -0.681653357  -0.574310757
  C    0.903704601   0.649726910  -0.696619804
  C    1.762133572   1.656076995  -0.273899793
  O    0.484685678  -1.711869733  -0.960693122
