27
charge=0 charge_a=0 charge_b=0 selection_a=1-14 selection_b=15-27 scaling=1.25 benchmark_Eint=-5.406 benchmark_unit=kcal/mol group=noHB
  H   -1.286321272   1.504334767   1.849873674
  H   -3.751402872   1.433844294  -1.654482227
  H   -2.667558773   2.680356712   0.195043989
  H   -2.112247436  -2.212565321  -0.106886651
  H   -0.127582615  -0.532309161   2.390280843
  H   -3.463880517  -1.025806139  -1.785756132
  H   -0.403771461  -1.967551554   1.594792915
  C   -3.153084600   0.913475691  -0.921733008
  C   -2.544440325   1.608990982   0.118423158
  C   -1.768982272   0.948872953   1.057261987
  C   -1.581620430  -0.435279185   0.978934754
  C   -2.215702896  -1.136534317  -0.055170971
  C   -2.986927351  -0.464108205  -0.994589159
  N   -0.808162860  -1.103457421   1.917082139
  H    3.636776980  -2.047073524  -0.089876277
  H    4.486298726   2.126872009   0.456155671
  H    5.169825311  -0.246340921   0.652556026
  H    0.749721424   0.886263589  -1.239858797
  H    0.418272283  -1.378572517  -1.288761413
  H    2.267961841   2.680682158  -0.498656227
  C    3.821206231   1.340267547   0.131427659
  C    4.202949982   0.007094723   0.240930088
  C    3.352340277  -1.008079563  -0.172059269
  C    2.106772968  -0.688559549  -0.705280599
  C    1.718905827   0.642820718  -0.827589646
  C    2.577334798   1.649170803  -0.404869635
  O    1.299886904  -1.718775925  -1.091662964
