20
charge=0 charge_a=0 charge_b=0 selection_a=1-14 selection_b=15-20 scaling=1.5 benchmark_Eint=-2.083 benchmark_unit=kcal/mol group=noHB
  H   -1.019273764   1.272314830  -2.016866544
  H   -2.828683147  -1.955390862   0.144450461
  H   -2.524865220  -0.668266712  -1.953850619
  H   -0.087270244   0.678817544   2.119899017
  H    0.732671148   2.477271477  -0.891313729
  H   -1.599360364  -1.256135581   2.181871130
  H    1.135762274   2.209559122   0.700827789
  C   -2.167364517  -1.102092551   0.118372865
  C   -1.995944372  -0.376370888  -1.057236599
  C   -1.148703642   0.718954141  -1.096095492
  C   -0.446060148   1.114944554   0.047884849
  C   -0.626948059   0.387405928   1.229738478
  C   -1.479891518  -0.705195043   1.259539353
  N    0.393740789   2.218375719   0.020205992
  H    3.268973739  -3.110563724  -0.609904438
  H    1.736045555  -2.248710093  -0.521550644
  H    2.956421532  -1.745195486  -1.750532307
  C    2.796912543  -2.136390383  -0.747379776
  N    3.365484098  -1.247222709   0.280633451
  O    3.898772872  -0.261064679  -0.158245644
