21
charge=0 charge_a=0 charge_b=0 selection_a=1-12 selection_b=13-21 scaling=0.95 benchmark_Eint=-2.726 benchmark_unit=kcal/mol group=noHB
  C    1.689878071   1.053376363   0.850851368
  H    1.906263360   1.778480633   1.622830534
  C    0.916357932   1.415431394  -0.246492108
  H    0.531354085   2.422324699  -0.326858719
  C    0.635230969   0.483369785  -1.237929383
  H    0.019185873   0.758545777  -2.081310990
  C    1.132312784  -0.809933079  -1.135011881
  H    0.907287505  -1.536114357  -1.903032572
  C    1.907087312  -1.172354836  -0.039816466
  H    2.291183837  -2.179578364   0.040946379
  C    2.184887443  -0.241281759   0.954738940
  H    2.785838920  -0.523698302   1.807684158
  H   -1.434770423  -2.082106587   0.396892953
  H   -2.364746957  -1.221699328   1.645694790
  H   -0.791079311  -0.587092236   1.101855286
  H   -3.195799273   1.372375089  -0.736841020
  H   -3.427392437   0.887756527   0.957905020
  H   -1.846105356   1.495223754   0.415583416
  C   -1.701645609  -1.101065807   0.780778415
  O   -2.347360948  -0.400784779  -0.261306006
  C   -2.719201126   0.902913668   0.120699807
