26
charge=0 charge_a=0 charge_b=0 selection_a=1-12 selection_b=13-26 scaling=0.9 benchmark_Eint=-2.348 benchmark_unit=kcal/mol group=noHB
  C    2.132154400  -1.402346768  -0.226333662
  H    2.208422062  -2.479485442  -0.177582184
  C    1.389819210  -0.804322697  -1.237491149
  H    0.879021544  -1.415837922  -1.966888364
  C    1.280889236   0.578157176  -1.293361065
  H    0.684737197   1.043042656  -2.064725972
  C    1.914668062   1.365426466  -0.339711913
  H    1.815715120   2.440713800  -0.379109480
  C    2.656170045   0.768348566   0.672002655
  H    3.147759023   1.379792561   1.416115420
  C    2.764930215  -0.616979393   0.729008964
  H    3.339850792  -1.082256417   1.517623868
  H   -2.500056500   0.822507920  -1.608762324
  H   -1.502999564  -2.928301253   0.206285866
  H   -2.617976503  -1.632847633  -1.589440119
  H   -0.153962805   0.732929337   1.970029598
  H   -1.946752103   2.821491581  -0.346621481
  H   -0.271504970  -1.717269119   1.985382028
  H   -0.992115734   2.780612936   1.020968079
  C   -1.458642746  -1.849248600   0.202863535
  C   -2.080892701  -1.120546733  -0.803152729
  C   -2.020756994   0.265135272  -0.814383953
  C   -1.333966482   0.951675689   0.190078361
  C   -0.710866384   0.215698949   1.200826533
  C   -0.773449657  -1.167585947   1.201941491
  N   -1.211361420   2.340201888   0.143357419
