16
charge=0 charge_a=0 charge_b=0 selection_a=1-12 selection_b=13-16 scaling=0.8 benchmark_Eint=0.435 benchmark_unit=kcal/mol group=noHB
  C   -0.482250420   0.000000022   0.001542624
  H   -1.564130307   0.000000077   0.002154095
  C    0.217787734   1.201798799   0.000956783
  H   -0.322502621   2.138483659   0.001616491
  C    1.608077884   1.203363206  -0.000449563
  H    2.148642460   2.139757366  -0.000962855
  C    2.304156186  -0.000000055  -0.001247325
  H    3.385269406   0.000000155  -0.002496178
  C    1.608077812  -1.203363280  -0.000449570
  H    2.148642285  -2.139757469  -0.000962880
  C    0.217787699  -1.201798713   0.000956791
  H   -0.322502838  -2.138483397   0.001616513
  N   -3.607170298   0.000000008  -0.000999748
  H   -3.981676745   0.814640819  -0.470823015
  H   -3.981676344  -0.814640993  -0.470822989
  H   -3.977689098  -0.000000061   0.940989703
