22
charge=0 charge_a=0 charge_b=0 selection_a=1-12 selection_b=13-22 scaling=1.25 benchmark_Eint=-1.885 benchmark_unit=kcal/mol group=noHB
  C   -2.574832049   0.648553843  -0.497688605
  H   -3.268598242   1.396126118  -0.855839654
  C   -1.749170727  -0.020408187  -1.394258809
  H   -1.798057104   0.209716145  -2.449195504
  C   -0.855566625  -0.979552454  -0.933735776
  H   -0.202582987  -1.486799948  -1.629171642
  C   -0.787115124  -1.270608326   0.422923382
  H   -0.083098091  -2.006849122   0.783266275
  C   -1.610805332  -0.601895385   1.320198745
  H   -1.551646254  -0.823823089   2.376268755
  C   -2.505501633   0.357903231   0.860021064
  H   -3.145190918   0.879415057   1.558063762
  H    3.707415644  -1.775282116  -0.403763464
  H    4.133466962  -0.941897594   1.125490576
  H    5.097012909  -0.702734176  -0.368495445
  H    2.221320674   2.870215416   0.577191755
  H    1.857154268   2.069338044  -0.987652272
  H    0.864116457   1.755634143   0.466952092
  C    4.097830247  -0.858060491   0.038727270
  N    3.251476372   0.247630446  -0.400404792
  N    2.729496577   0.862826411   0.527853581
  C    1.868271342   1.957771134   0.096421795
