20
charge=0 charge_a=0 charge_b=0 selection_a=1-12 selection_b=13-20 scaling=0.9 benchmark_Eint=-4.207 benchmark_unit=kcal/mol group=noHB
  C    1.891604494  -0.118137285   1.390796024
  H    1.888800948  -0.116062125   2.471540277
  C    1.147275331  -1.065885534   0.696148644
  H    0.555584665  -1.794615009   1.230448047
  C    1.147275331  -1.065885534  -0.696148644
  H    0.555584665  -1.794615009  -1.230448047
  C    1.891604494  -0.118137285  -1.390796024
  H    1.888800948  -0.116062125  -2.471540277
  C    2.632913580   0.830141372  -0.695095730
  H    3.206885678   1.569668391  -1.235214813
  C    2.632913580   0.830141372   0.695095730
  H    3.206885678   1.569668391   1.235214813
  H   -0.363807111   0.410698773  -0.000000000
  H   -3.629516364   1.367253314  -0.877095109
  H   -3.629516364   1.367253314   0.877095109
  H   -4.344412967  -0.008704716  -0.000000000
  O   -2.051285538  -1.161918606  -0.000000000
  C   -2.215195352   0.031494990  -0.000000000
  O   -1.195949089   0.913415382  -0.000000000
  C   -3.547772993   0.726684594  -0.000000000
