26
charge=0 charge_a=0 charge_b=0 selection_a=1-12 selection_b=13-26 scaling=1.1 benchmark_Eint=-3.177 benchmark_unit=kcal/mol group=noHB
  C    2.132154400  -1.402346768  -0.226333662
  H    2.208422062  -2.479485442  -0.177582184
  C    1.389819210  -0.804322697  -1.237491149
  H    0.879021544  -1.415837922  -1.966888364
  C    1.280889236   0.578157176  -1.293361065
  H    0.684737197   1.043042656  -2.064725972
  C    1.914668062   1.365426466  -0.339711913
  H    1.815715120   2.440713800  -0.379109480
  C    2.656170045   0.768348566   0.672002655
  H    3.147759023   1.379792561   1.416115420
  C    2.764930215  -0.616979393   0.729008964
  H    3.339850792  -1.082256417   1.517623868
  H   -3.150793064   0.828508928  -1.517982974
  H   -2.153736128  -2.922300245   0.297065216
  H   -3.268713067  -1.626846625  -1.498660769
  H   -0.804699369   0.738930345   2.060808948
  H   -2.597488667   2.827492589  -0.255842131
  H   -0.922241534  -1.711268111   2.076161378
  H   -1.642852298   2.786613944   1.111747429
  C   -2.109379310  -1.843247592   0.293642885
  C   -2.731629265  -1.114545725  -0.712373379
  C   -2.671493558   0.271136280  -0.723604603
  C   -1.984703046   0.957676697   0.280857711
  C   -1.361602948   0.221699957   1.291605883
  C   -1.424186221  -1.161584939   1.292720841
  N   -1.862097984   2.346202896   0.234136769
