22
charge=0 charge_a=0 charge_b=0 selection_a=1-12 selection_b=13-22 scaling=1.1 benchmark_Eint=-3.706 benchmark_unit=kcal/mol group=noHB
  C    0.795548646   0.492403495   1.245778795
  H    0.161090074   0.841865251   2.047553582
  C    1.001713786  -0.871008987   1.072690898
  H    0.518670996  -1.575756475   1.733275884
  C    1.808956974  -1.324388368   0.036644280
  H    1.967084543  -2.384849217  -0.099695455
  C    2.404948269  -0.415742743  -0.830845521
  H    3.029879772  -0.769410542  -1.638803035
  C    2.195127399   0.948015525  -0.660518904
  H    2.658140350   1.654940852  -1.334557638
  C    1.391989630   1.401788141   0.380220857
  H    1.232002481   2.462430489   0.515840993
  H   -1.831587270   1.923583136  -0.392574665
  H   -3.108970640   1.628452207   0.818065253
  H   -3.481019566   1.635610033  -0.919347380
  H   -1.729491910  -1.697927195  -1.493400336
  H   -0.782367858  -0.196918670  -1.546948645
  C   -2.738148927   1.362390838  -0.167235883
  C   -2.469036059  -0.123906417  -0.241460603
  O   -2.783499253  -0.872608679   0.654435891
  C   -1.788894034  -0.614128126  -1.496549362
  H   -2.326129929  -0.270012382  -2.381639398
