22
charge=0 charge_a=0 charge_b=0 selection_a=1-12 selection_b=13-22 scaling=0.95 benchmark_Eint=-2.914 benchmark_unit=kcal/mol group=noHB
  C    2.448356502   0.772362747   0.674600068
  H    2.979546032   1.515953116   1.251864667
  C    2.198073574   0.988297597  -0.675772366
  H    2.533955216   1.900644229  -1.148205585
  C    1.512188193   0.033745112  -1.417116692
  H    1.309038143   0.205251646  -2.464524387
  C    1.077960357  -1.137698646  -0.809421467
  H    0.536244475  -1.874498046  -1.384759494
  C    1.332588276  -1.356666565   0.539165969
  H    0.997458833  -2.269421539   1.011438517
  C    2.016389124  -0.401090527   1.282214081
  H    2.212037076  -0.570249516   2.331710587
  H   -0.956093745   1.915070443  -0.710573202
  H   -1.350392965   2.442835008   0.946391242
  H   -0.409586244   0.950864343   0.685165405
  H   -2.266704439  -2.225821790  -0.417961540
  H   -3.294493669  -1.445574306   0.812343932
  H   -1.512963680  -1.389373311   0.962155339
  C   -1.209522351   1.580361811   0.295685734
  O   -2.458350150   0.911811484   0.310777464
  O   -2.323772919  -0.237845449  -0.565391986
  C   -2.352857639  -1.380912534   0.264908849
