22
charge=0 charge_a=0 charge_b=0 selection_a=1-12 selection_b=13-22 scaling=1.5 benchmark_Eint=-1.293 benchmark_unit=kcal/mol group=noHB
  C    0.795548646   0.492403495   1.245778795
  H    0.161090074   0.841865251   2.047553582
  C    1.001713786  -0.871008987   1.072690898
  H    0.518670996  -1.575756475   1.733275884
  C    1.808956974  -1.324388368   0.036644280
  H    1.967084543  -2.384849217  -0.099695455
  C    2.404948269  -0.415742743  -0.830845521
  H    3.029879772  -0.769410542  -1.638803035
  C    2.195127399   0.948015525  -0.660518904
  H    2.658140350   1.654940852  -1.334557638
  C    1.391989630   1.401788141   0.380220857
  H    1.232002481   2.462430489   0.515840993
  H   -3.002542979   1.895404099  -0.544180665
  H   -4.279926349   1.600273170   0.666459253
  H   -4.651975275   1.607430996  -1.070953380
  H   -2.900447619  -1.726106232  -1.645006336
  H   -1.953323567  -0.225097707  -1.698554645
  C   -3.909104636   1.334211801  -0.318841883
  C   -3.639991768  -0.152085454  -0.393066603
  O   -3.954454962  -0.900787716   0.502829891
  C   -2.959849743  -0.642307163  -1.648155362
  H   -3.497085638  -0.298191419  -2.533245398
