22
charge=0 charge_a=0 charge_b=0 selection_a=1-12 selection_b=13-22 scaling=0.9 benchmark_Eint=-2.495 benchmark_unit=kcal/mol group=noHB
  C    0.417359343  -0.000000000  -0.610410277
  H   -0.590634950  -0.000000000  -1.002511855
  C    1.065306032  -1.202179129  -0.348273342
  H    0.563729505  -2.138471542  -0.550394773
  C    2.354439939  -1.203550279   0.172239958
  H    2.855731466  -2.139856269   0.374519481
  C    2.999534664  -0.000000000   0.432939285
  H    4.001830681  -0.000000000   0.837989824
  C    2.354439939   1.203550279   0.172239958
  H    2.855731466   2.139856269   0.374519481
  C    1.065306032   1.202179129  -0.348273342
  H    0.563729505   2.138471542  -0.550394773
  H   -1.694924632   1.272463147   0.863993468
  H   -3.433128614   1.261835056   1.186667452
  H   -2.791784646   2.085479228  -0.249766550
  H   -3.593396249   0.000000000  -0.963263229
  H   -2.791784646  -2.085479228  -0.249766550
  H   -1.694924632  -1.272463147   0.863993468
  H   -3.433128614  -1.261835056   1.186667452
  C   -2.675606050   1.212508706   0.390781073
  N   -2.748104592   0.000000000  -0.409912670
  C   -2.675606050  -1.212508706   0.390781073
