22
charge=0 charge_a=0 charge_b=0 selection_a=1-12 selection_b=13-22 scaling=1.5 benchmark_Eint=-0.970 benchmark_unit=kcal/mol group=noHB
  C    2.448356502   0.772362747   0.674600068
  H    2.979546032   1.515953116   1.251864667
  C    2.198073574   0.988297597  -0.675772366
  H    2.533955216   1.900644229  -1.148205585
  C    1.512188193   0.033745112  -1.417116692
  H    1.309038143   0.205251646  -2.464524387
  C    1.077960357  -1.137698646  -0.809421467
  H    0.536244475  -1.874498046  -1.384759494
  C    1.332588276  -1.356666565   0.539165969
  H    0.997458833  -2.269421539   1.011438517
  C    2.016389124  -0.401090527   1.282214081
  H    2.212037076  -0.570249516   2.331710587
  H   -2.484908282   2.074011639  -0.651924793
  H   -2.879207502   2.601776204   1.005039651
  H   -1.938400781   1.109805539   0.743813814
  H   -3.795518976  -2.066880594  -0.359313131
  H   -4.823308206  -1.286633110   0.870992341
  H   -3.041778217  -1.230432115   1.020803748
  C   -2.738336888   1.739303007   0.354334143
  O   -3.987164687   1.070752680   0.369425873
  O   -3.852587456  -0.078904253  -0.506743577
  C   -3.881672176  -1.221971338   0.323557258
