26
charge=0 charge_a=0 charge_b=0 selection_a=1-12 selection_b=13-26 scaling=2.0 benchmark_Eint=-0.110 benchmark_unit=kcal/mol group=noHB
  C    2.132154400  -1.402346768  -0.226333662
  H    2.208422062  -2.479485442  -0.177582184
  C    1.389819210  -0.804322697  -1.237491149
  H    0.879021544  -1.415837922  -1.966888364
  C    1.280889236   0.578157176  -1.293361065
  H    0.684737197   1.043042656  -2.064725972
  C    1.914668062   1.365426466  -0.339711913
  H    1.815715120   2.440713800  -0.379109480
  C    2.656170045   0.768348566   0.672002655
  H    3.147759023   1.379792561   1.416115420
  C    2.764930215  -0.616979393   0.729008964
  H    3.339850792  -1.082256417   1.517623868
  H   -6.079107603   0.855513466  -1.109475894
  H   -5.082050667  -2.895295707   0.705572296
  H   -6.197027606  -1.599842087  -1.090153689
  H   -3.733013908   0.765934883   2.469316028
  H   -5.525803206   2.854497127   0.152664949
  H   -3.850556073  -1.684263573   2.484668458
  H   -4.571166837   2.813618482   1.520254509
  C   -5.037693849  -1.816243054   0.702149965
  C   -5.659943804  -1.087541187  -0.303866299
  C   -5.599808097   0.298140818  -0.315097523
  C   -4.913017585   0.984681235   0.689364791
  C   -4.289917487   0.248704495   1.700112963
  C   -4.352500760  -1.134580401   1.701227921
  N   -4.790412523   2.373207434   0.642643849
