22
charge=0 charge_a=0 charge_b=0 selection_a=1-12 selection_b=13-22 scaling=0.85 benchmark_Eint=-1.424 benchmark_unit=kcal/mol group=noHB
  C    2.448356502   0.772362747   0.674600068
  H    2.979546032   1.515953116   1.251864667
  C    2.198073574   0.988297597  -0.675772366
  H    2.533955216   1.900644229  -1.148205585
  C    1.512188193   0.033745112  -1.417116692
  H    1.309038143   0.205251646  -2.464524387
  C    1.077960357  -1.137698646  -0.809421467
  H    0.536244475  -1.874498046  -1.384759494
  C    1.332588276  -1.356666565   0.539165969
  H    0.997458833  -2.269421539   1.011438517
  C    2.016389124  -0.401090527   1.282214081
  H    2.212037076  -0.570249516   2.331710587
  H   -0.678127466   1.886172044  -0.721236549
  H   -1.072426686   2.413936609   0.935727895
  H   -0.131619965   0.921965944   0.674502058
  H   -1.988738160  -2.254720189  -0.428624887
  H   -3.016527390  -1.474472705   0.801680585
  H   -1.234997401  -1.418271710   0.951491992
  C   -0.931556072   1.551463412   0.285022387
  O   -2.180383871   0.882913085   0.300114117
  O   -2.045806640  -0.266743848  -0.576055333
  C   -2.074891360  -1.409810933   0.254245502
