18
charge=0 charge_a=0 charge_b=0 selection_a=1-12 selection_b=13-18 scaling=0.8 benchmark_Eint=0.070 benchmark_unit=kcal/mol group=noHB
  C    2.004014469  -0.427835681   0.923866072
  H    2.576467118  -0.930357756   1.690847952
  C    2.031882048  -0.896943549  -0.384470263
  H    2.626028264  -1.764431694  -0.635296388
  C    1.296681317  -0.247672094  -1.370677242
  H    1.318711347  -0.611669139  -2.388343510
  C    0.533059656   0.868001502  -1.048603552
  H   -0.049906308   1.365447377  -1.810001838
  C    0.505075987   1.337530027   0.259563048
  H   -0.102040654   2.195029914   0.509815335
  C    1.240969552   0.690482970   1.245210456
  H    1.218529001   1.054965418   2.262570744
  H   -0.200196004  -1.129435070   0.705544485
  H   -1.696773230  -2.033561795   1.013807400
  H   -1.034819446  -1.935101955  -0.626365088
  C   -1.177326927  -1.391087159   0.305062871
  C   -1.950194198  -0.184933512   0.063773700
  N   -2.557494082   0.771141925  -0.126526957
