20
charge=0 charge_a=0 charge_b=0 selection_a=1-12 selection_b=13-20 scaling=1.1 benchmark_Eint=-4.329 benchmark_unit=kcal/mol group=noHB
  C    1.891604494  -0.118137285   1.390796024
  H    1.888800948  -0.116062125   2.471540277
  C    1.147275331  -1.065885534   0.696148644
  H    0.555584665  -1.794615009   1.230448047
  C    1.147275331  -1.065885534  -0.696148644
  H    0.555584665  -1.794615009  -1.230448047
  C    1.891604494  -0.118137285  -1.390796024
  H    1.888800948  -0.116062125  -2.471540277
  C    2.632913580   0.830141372  -0.695095730
  H    3.206885678   1.569668391  -1.235214813
  C    2.632913580   0.830141372   0.695095730
  H    3.206885678   1.569668391   1.235214813
  H   -0.843503043   0.440552617   0.000000000
  H   -4.109212296   1.397107158  -0.877095109
  H   -4.109212296   1.397107158   0.877095109
  H   -4.824108899   0.021149128   0.000000000
  O   -2.530981470  -1.132064762   0.000000000
  C   -2.694891284   0.061348834   0.000000000
  O   -1.675645021   0.943269226   0.000000000
  C   -4.027468925   0.756538438   0.000000000
