22
charge=0 charge_a=0 charge_b=0 selection_a=1-12 selection_b=13-22 scaling=0.85 benchmark_Eint=-1.371 benchmark_unit=kcal/mol group=noHB
  C   -2.574832049   0.648553843  -0.497688605
  H   -3.268598242   1.396126118  -0.855839654
  C   -1.749170727  -0.020408187  -1.394258809
  H   -1.798057104   0.209716145  -2.449195504
  C   -0.855566625  -0.979552454  -0.933735776
  H   -0.202582987  -1.486799948  -1.629171642
  C   -0.787115124  -1.270608326   0.422923382
  H   -0.083098091  -2.006849122   0.783266275
  C   -1.610805332  -0.601895385   1.320198745
  H   -1.551646254  -0.823823089   2.376268755
  C   -2.505501633   0.357903231   0.860021064
  H   -3.145190918   0.879415057   1.558063762
  H    2.544361493  -1.990276596  -0.429386713
  H    2.970412811  -1.156892074   1.099867327
  H    3.933958758  -0.917728656  -0.394118694
  H    1.058266523   2.655220936   0.551568506
  H    0.694100117   1.854343564  -1.013275521
  H   -0.298937694   1.540639663   0.441328843
  C    2.934776096  -1.073054971   0.013104021
  N    2.088422221   0.032635966  -0.426028041
  N    1.566442426   0.647831931   0.502230332
  C    0.705217191   1.742776654   0.070798546
