24
charge=0 charge_a=0 charge_b=0 selection_a=1-12 selection_b=13-24 scaling=1.05 benchmark_Eint=-4.515 benchmark_unit=kcal/mol group=noHB
  C    1.034053907  -0.852608583   1.070262972
  H    0.292729770  -1.291716705   1.722121828
  C    1.509995628  -1.558277400  -0.028327489
  H    1.144828103  -2.555590461  -0.230212672
  C    2.455122037  -0.982383993  -0.869818267
  H    2.825190326  -1.531583871  -1.724139130
  C    2.925740020   0.299755427  -0.609846009
  H    3.662728541   0.747314506  -1.261888682
  C    2.446868467   1.006698411   0.487573551
  H    2.808597692   2.005636375   0.686724659
  C    1.498982648   0.431976240   1.325736379
  H    1.111437052   0.985310024   2.168493726
  H   -1.502167862   1.621197341  -2.174007005
  H    0.016799322   1.018601570  -1.463952092
  H   -0.398479056   2.743750042  -1.339900379
  H   -2.390739198  -2.338740392  -1.436883389
  H   -1.905622041  -2.251939656   0.278477206
  H   -3.522302071  -1.709618043  -0.205150469
  O   -1.448253636   1.567461472  -0.088369171
  C   -1.983805938   0.389767927   0.228793990
  O   -2.440289135   0.157519346   1.313862605
  O   -1.956295057  -0.476610341  -0.799049984
  C   -2.481925496  -1.778451771  -0.512622203
  C   -0.793545152   1.733767014  -1.357041212
