26
charge=0 charge_a=0 charge_b=0 selection_a=1-12 selection_b=13-26 scaling=0.95 benchmark_Eint=-3.394 benchmark_unit=kcal/mol group=noHB
  C    2.132154400  -1.402346768  -0.226333662
  H    2.208422062  -2.479485442  -0.177582184
  C    1.389819210  -0.804322697  -1.237491149
  H    0.879021544  -1.415837922  -1.966888364
  C    1.280889236   0.578157176  -1.293361065
  H    0.684737197   1.043042656  -2.064725972
  C    1.914668062   1.365426466  -0.339711913
  H    1.815715120   2.440713800  -0.379109480
  C    2.656170045   0.768348566   0.672002655
  H    3.147759023   1.379792561   1.416115420
  C    2.764930215  -0.616979393   0.729008964
  H    3.339850792  -1.082256417   1.517623868
  H   -2.662740641   0.824008172  -1.586067487
  H   -1.665683705  -2.926801001   0.228980703
  H   -2.780660644  -1.631347381  -1.566745282
  H   -0.316646946   0.734429589   1.992724435
  H   -2.109436244   2.822991833  -0.323926644
  H   -0.434189111  -1.715768867   2.008076865
  H   -1.154799875   2.782113188   1.043662916
  C   -1.621326887  -1.847748348   0.225558372
  C   -2.243576842  -1.119046481  -0.780457892
  C   -2.183441135   0.266635524  -0.791689116
  C   -1.496650623   0.953175941   0.212773198
  C   -0.873550525   0.217199201   1.223521370
  C   -0.936133798  -1.166085695   1.224636328
  N   -1.374045561   2.341702140   0.166052256
