22
charge=0 charge_a=0 charge_b=0 selection_a=1-12 selection_b=13-22 scaling=1.05 benchmark_Eint=-2.900 benchmark_unit=kcal/mol group=noHB
  C   -2.574832049   0.648553843  -0.497688605
  H   -3.268598242   1.396126118  -0.855839654
  C   -1.749170727  -0.020408187  -1.394258809
  H   -1.798057104   0.209716145  -2.449195504
  C   -0.855566625  -0.979552454  -0.933735776
  H   -0.202582987  -1.486799948  -1.629171642
  C   -0.787115124  -1.270608326   0.422923382
  H   -0.083098091  -2.006849122   0.783266275
  C   -1.610805332  -0.601895385   1.320198745
  H   -1.551646254  -0.823823089   2.376268755
  C   -2.505501633   0.357903231   0.860021064
  H   -3.145190918   0.879415057   1.558063762
  H    3.125888569  -1.882779356  -0.416575089
  H    3.551939887  -1.049394834   1.112678951
  H    4.515485834  -0.810231416  -0.381307070
  H    1.639793599   2.762718176   0.564380130
  H    1.275627193   1.961840804  -1.000463897
  H    0.282589382   1.648136903   0.454140467
  C    3.516303172  -0.965557731   0.025915645
  N    2.669949297   0.140133206  -0.413216417
  N    2.147969502   0.755329171   0.515041956
  C    1.286744267   1.850273894   0.083610170
