22
charge=0 charge_a=0 charge_b=0 selection_a=1-12 selection_b=13-22 scaling=1.1 benchmark_Eint=-2.681 benchmark_unit=kcal/mol group=noHB
  C   -2.574832049   0.648553843  -0.497688605
  H   -3.268598242   1.396126118  -0.855839654
  C   -1.749170727  -0.020408187  -1.394258809
  H   -1.798057104   0.209716145  -2.449195504
  C   -0.855566625  -0.979552454  -0.933735776
  H   -0.202582987  -1.486799948  -1.629171642
  C   -0.787115124  -1.270608326   0.422923382
  H   -0.083098091  -2.006849122   0.783266275
  C   -1.610805332  -0.601895385   1.320198745
  H   -1.551646254  -0.823823089   2.376268755
  C   -2.505501633   0.357903231   0.860021064
  H   -3.145190918   0.879415057   1.558063762
  H    3.271270338  -1.855905046  -0.413372183
  H    3.697321656  -1.022520524   1.115881857
  H    4.660867603  -0.783357106  -0.378104164
  H    1.785175368   2.789592486   0.567583036
  H    1.421008962   1.988715114  -0.997260991
  H    0.427971151   1.675011213   0.457343373
  C    3.661684941  -0.938683421   0.029118551
  N    2.815331066   0.167007516  -0.410013511
  N    2.293351271   0.782203481   0.518244862
  C    1.432126036   1.877148204   0.086813076
