22
charge=0 charge_a=0 charge_b=0 selection_a=1-12 selection_b=13-22 scaling=1.0 benchmark_Eint=-4.169 benchmark_unit=kcal/mol group=noHB
  C    0.795548646   0.492403495   1.245778795
  H    0.161090074   0.841865251   2.047553582
  C    1.001713786  -0.871008987   1.072690898
  H    0.518670996  -1.575756475   1.733275884
  C    1.808956974  -1.324388368   0.036644280
  H    1.967084543  -2.384849217  -0.099695455
  C    2.404948269  -0.415742743  -0.830845521
  H    3.029879772  -0.769410542  -1.638803035
  C    2.195127399   0.948015525  -0.660518904
  H    2.658140350   1.654940852  -1.334557638
  C    1.391989630   1.401788141   0.380220857
  H    1.232002481   2.462430489   0.515840993
  H   -1.538848343   1.930627895  -0.354673165
  H   -2.816231713   1.635496966   0.855966753
  H   -3.188280639   1.642654792  -0.881445880
  H   -1.436752983  -1.690882436  -1.455498836
  H   -0.489628931  -0.189873911  -1.509047145
  C   -2.445410000   1.369435597  -0.129334383
  C   -2.176297132  -0.116861658  -0.203559103
  O   -2.490760326  -0.865563920   0.692337391
  C   -1.496155107  -0.607083367  -1.458647862
  H   -2.033391002  -0.262967623  -2.343737898
