22
charge=0 charge_a=0 charge_b=0 selection_a=1-12 selection_b=13-22 scaling=1.25 benchmark_Eint=-1.914 benchmark_unit=kcal/mol group=noHB
  C    2.448356502   0.772362747   0.674600068
  H    2.979546032   1.515953116   1.251864667
  C    2.198073574   0.988297597  -0.675772366
  H    2.533955216   1.900644229  -1.148205585
  C    1.512188193   0.033745112  -1.417116692
  H    1.309038143   0.205251646  -2.464524387
  C    1.077960357  -1.137698646  -0.809421467
  H    0.536244475  -1.874498046  -1.384759494
  C    1.332588276  -1.356666565   0.539165969
  H    0.997458833  -2.269421539   1.011438517
  C    2.016389124  -0.401090527   1.282214081
  H    2.212037076  -0.570249516   2.331710587
  H   -1.789992584   2.001765641  -0.678583160
  H   -2.184291804   2.529530206   0.978381284
  H   -1.243485083   1.037559541   0.717155447
  H   -3.100603278  -2.139126592  -0.385971498
  H   -4.128392508  -1.358879108   0.844333974
  H   -2.346862519  -1.302678113   0.994145381
  C   -2.043421190   1.667057009   0.327675776
  O   -3.292248989   0.998506682   0.342767506
  O   -3.157671758  -0.151150251  -0.533401944
  C   -3.186756478  -1.294217336   0.296898891
