26
charge=0 charge_a=0 charge_b=0 selection_a=1-12 selection_b=13-26 scaling=0.8 benchmark_Eint=4.783 benchmark_unit=kcal/mol group=noHB
  C    2.132154400  -1.402346768  -0.226333662
  H    2.208422062  -2.479485442  -0.177582184
  C    1.389819210  -0.804322697  -1.237491149
  H    0.879021544  -1.415837922  -1.966888364
  C    1.280889236   0.578157176  -1.293361065
  H    0.684737197   1.043042656  -2.064725972
  C    1.914668062   1.365426466  -0.339711913
  H    1.815715120   2.440713800  -0.379109480
  C    2.656170045   0.768348566   0.672002655
  H    3.147759023   1.379792561   1.416115420
  C    2.764930215  -0.616979393   0.729008964
  H    3.339850792  -1.082256417   1.517623868
  H   -2.174688218   0.819507416  -1.654152000
  H   -1.177631282  -2.931301757   0.160896190
  H   -2.292608221  -1.635848137  -1.634829795
  H    0.171405477   0.729928833   1.924639922
  H   -1.621383821   2.818491077  -0.392011157
  H    0.053863312  -1.720269623   1.939992352
  H   -0.666747452   2.777612432   0.975578403
  C   -1.133274464  -1.852249104   0.157473859
  C   -1.755524419  -1.123547237  -0.848542405
  C   -1.695388712   0.262134768  -0.859773629
  C   -1.008598200   0.948675185   0.144688685
  C   -0.385498102   0.212698445   1.155436857
  C   -0.448081375  -1.170586451   1.156551815
  N   -0.885993138   2.337201384   0.097967743
