18
charge=0 charge_a=0 charge_b=0 selection_a=1-12 selection_b=13-18 scaling=1.5 benchmark_Eint=-1.495 benchmark_unit=kcal/mol group=noHB
  C    2.004014469  -0.427835681   0.923866072
  H    2.576467118  -0.930357756   1.690847952
  C    2.031882048  -0.896943549  -0.384470263
  H    2.626028264  -1.764431694  -0.635296388
  C    1.296681317  -0.247672094  -1.370677242
  H    1.318711347  -0.611669139  -2.388343510
  C    0.533059656   0.868001502  -1.048603552
  H   -0.049906308   1.365447377  -1.810001838
  C    0.505075987   1.337530027   0.259563048
  H   -0.102040654   2.195029914   0.509815335
  C    1.240969552   0.690482970   1.245210456
  H    1.218529001   1.054965418   2.262570744
  H   -2.137998270  -1.466185746   0.800971831
  H   -3.634575496  -2.370312471   1.109234746
  H   -2.972621712  -2.271852631  -0.530937742
  C   -3.115129193  -1.727837835   0.400490217
  C   -3.887996464  -0.521684188   0.159201046
  N   -4.495296348   0.434391249  -0.031099611
