21
charge=0 charge_a=0 charge_b=0 selection_a=1-12 selection_b=13-21 scaling=0.8 benchmark_Eint=0.510 benchmark_unit=kcal/mol group=noHB
  C    1.689878071   1.053376363   0.850851368
  H    1.906263360   1.778480633   1.622830534
  C    0.916357932   1.415431394  -0.246492108
  H    0.531354085   2.422324699  -0.326858719
  C    0.635230969   0.483369785  -1.237929383
  H    0.019185873   0.758545777  -2.081310990
  C    1.132312784  -0.809933079  -1.135011881
  H    0.907287505  -1.536114357  -1.903032572
  C    1.907087312  -1.172354836  -0.039816466
  H    2.291183837  -2.179578364   0.040946379
  C    2.184887443  -0.241281759   0.954738940
  H    2.785838920  -0.523698302   1.807684158
  H   -1.019929780  -2.046427963   0.355105141
  H   -1.949906314  -1.186020704   1.603906978
  H   -0.376238668  -0.551413612   1.060067474
  H   -2.780958630   1.408053713  -0.778628832
  H   -3.012551794   0.923435151   0.916117208
  H   -1.431264713   1.530902378   0.373795604
  C   -1.286804966  -1.065387183   0.738990603
  O   -1.932520305  -0.365106155  -0.303093818
  C   -2.304360483   0.938592292   0.078911995
