22
charge=0 charge_a=0 charge_b=0 selection_a=1-12 selection_b=13-22 scaling=1.0 benchmark_Eint=-3.010 benchmark_unit=kcal/mol group=noHB
  C    0.417359343  -0.000000000  -0.610410277
  H   -0.590634950  -0.000000000  -1.002511855
  C    1.065306032  -1.202179129  -0.348273342
  H    0.563729505  -2.138471542  -0.550394773
  C    2.354439939  -1.203550279   0.172239958
  H    2.855731466  -2.139856269   0.374519481
  C    2.999534664  -0.000000000   0.432939285
  H    4.001830681  -0.000000000   0.837989824
  C    2.354439939   1.203550279   0.172239958
  H    2.855731466   2.139856269   0.374519481
  C    1.065306032   1.202179129  -0.348273342
  H    0.563729505   2.138471542  -0.550394773
  H   -1.942613111   1.272463147   0.876757439
  H   -3.680817093   1.261835056   1.199431423
  H   -3.039473125   2.085479228  -0.237002579
  H   -3.841084728  -0.000000000  -0.950499258
  H   -3.039473125  -2.085479228  -0.237002579
  H   -1.942613111  -1.272463147   0.876757439
  H   -3.680817093  -1.261835056   1.199431423
  C   -2.923294529   1.212508706   0.403545044
  N   -2.995793071  -0.000000000  -0.397148699
  C   -2.923294529  -1.212508706   0.403545044
