16
charge=0 charge_a=0 charge_b=0 selection_a=1-12 selection_b=13-16 scaling=0.95 benchmark_Eint=-1.573 benchmark_unit=kcal/mol group=noHB
  C   -0.482250420   0.000000022   0.001542624
  H   -1.564130307   0.000000077   0.002154095
  C    0.217787734   1.201798799   0.000956783
  H   -0.322502621   2.138483659   0.001616491
  C    1.608077884   1.203363206  -0.000449563
  H    2.148642460   2.139757366  -0.000962855
  C    2.304156186  -0.000000055  -0.001247325
  H    3.385269406   0.000000155  -0.002496178
  C    1.608077812  -1.203363280  -0.000449570
  H    2.148642285  -2.139757469  -0.000962880
  C    0.217787699  -1.201798713   0.000956791
  H   -0.322502838  -2.138483397   0.001616513
  N   -3.990240677   0.000000007  -0.001089543
  H   -4.364747124   0.814640818  -0.470912810
  H   -4.364746723  -0.814640994  -0.470912784
  H   -4.360759477  -0.000000062   0.940899908
