22
charge=0 charge_a=0 charge_b=0 selection_a=1-12 selection_b=13-22 scaling=2.0 benchmark_Eint=-0.251 benchmark_unit=kcal/mol group=noHB
  C   -2.574832049   0.648553843  -0.497688605
  H   -3.268598242   1.396126118  -0.855839654
  C   -1.749170727  -0.020408187  -1.394258809
  H   -1.798057104   0.209716145  -2.449195504
  C   -0.855566625  -0.979552454  -0.933735776
  H   -0.202582987  -1.486799948  -1.629171642
  C   -0.787115124  -1.270608326   0.422923382
  H   -0.083098091  -2.006849122   0.783266275
  C   -1.610805332  -0.601895385   1.320198745
  H   -1.551646254  -0.823823089   2.376268755
  C   -2.505501633   0.357903231   0.860021064
  H   -3.145190918   0.879415057   1.558063762
  H    5.888142178  -1.372167464  -0.355719873
  H    6.314193496  -0.538782942   1.173534167
  H    7.277739443  -0.299619524  -0.320451854
  H    4.402047208   3.273330068   0.625235346
  H    4.037880802   2.472452696  -0.939608681
  H    3.044842991   2.158748795   0.514995683
  C    6.278556781  -0.454945839   0.086770861
  N    5.432202906   0.650745098  -0.352361201
  N    4.910223111   1.265941063   0.575897172
  C    4.048997876   2.360885786   0.144465386
