22
charge=0 charge_a=0 charge_b=0 selection_a=1-12 selection_b=13-22 scaling=0.8 benchmark_Eint=1.242 benchmark_unit=kcal/mol group=noHB
  C    0.795548646   0.492403495   1.245778795
  H    0.161090074   0.841865251   2.047553582
  C    1.001713786  -0.871008987   1.072690898
  H    0.518670996  -1.575756475   1.733275884
  C    1.808956974  -1.324388368   0.036644280
  H    1.967084543  -2.384849217  -0.099695455
  C    2.404948269  -0.415742743  -0.830845521
  H    3.029879772  -0.769410542  -1.638803035
  C    2.195127399   0.948015525  -0.660518904
  H    2.658140350   1.654940852  -1.334557638
  C    1.391989630   1.401788141   0.380220857
  H    1.232002481   2.462430489   0.515840993
  H   -0.953370488   1.944717413  -0.278870165
  H   -2.230753858   1.649586484   0.931769753
  H   -2.602802784   1.656744310  -0.805642880
  H   -0.851275128  -1.676792918  -1.379695836
  H    0.095848924  -0.175784393  -1.433244145
  C   -1.859932145   1.383525115  -0.053531383
  C   -1.590819277  -0.102772140  -0.127756103
  O   -1.905282471  -0.851474402   0.768140391
  C   -0.910677252  -0.592993849  -1.382844862
  H   -1.447913147  -0.248878105  -2.267934898
