20
charge=0 charge_a=0 charge_b=0 selection_a=1-12 selection_b=13-20 scaling=1.0 benchmark_Eint=-4.670 benchmark_unit=kcal/mol group=noHB
  C    1.891604494  -0.118137285   1.390796024
  H    1.888800948  -0.116062125   2.471540277
  C    1.147275331  -1.065885534   0.696148644
  H    0.555584665  -1.794615009   1.230448047
  C    1.147275331  -1.065885534  -0.696148644
  H    0.555584665  -1.794615009  -1.230448047
  C    1.891604494  -0.118137285  -1.390796024
  H    1.888800948  -0.116062125  -2.471540277
  C    2.632913580   0.830141372  -0.695095730
  H    3.206885678   1.569668391  -1.235214813
  C    2.632913580   0.830141372   0.695095730
  H    3.206885678   1.569668391   1.235214813
  H   -0.603655077   0.425625695   0.000000000
  H   -3.869364330   1.382180236  -0.877095109
  H   -3.869364330   1.382180236   0.877095109
  H   -4.584260933   0.006222206   0.000000000
  O   -2.291133504  -1.146991684   0.000000000
  C   -2.455043318   0.046421912   0.000000000
  O   -1.435797055   0.928342304   0.000000000
  C   -3.787620959   0.741611516   0.000000000
