22
charge=0 charge_a=0 charge_b=0 selection_a=1-12 selection_b=13-22 scaling=1.0 benchmark_Eint=-3.011 benchmark_unit=kcal/mol group=noHB
  C    2.448356502   0.772362747   0.674600068
  H    2.979546032   1.515953116   1.251864667
  C    2.198073574   0.988297597  -0.675772366
  H    2.533955216   1.900644229  -1.148205585
  C    1.512188193   0.033745112  -1.417116692
  H    1.309038143   0.205251646  -2.464524387
  C    1.077960357  -1.137698646  -0.809421467
  H    0.536244475  -1.874498046  -1.384759494
  C    1.332588276  -1.356666565   0.539165969
  H    0.997458833  -2.269421539   1.011438517
  C    2.016389124  -0.401090527   1.282214081
  H    2.212037076  -0.570249516   2.331710587
  H   -1.095076885   1.929519643  -0.705241528
  H   -1.489376105   2.457284208   0.951722916
  H   -0.548569384   0.965313543   0.690497079
  H   -2.405687579  -2.211372590  -0.412629866
  H   -3.433476809  -1.431125106   0.817675606
  H   -1.651946820  -1.374924111   0.967487013
  C   -1.348505491   1.594811011   0.301017408
  O   -2.597333290   0.926260684   0.316109138
  O   -2.462756059  -0.223396249  -0.560060312
  C   -2.491840779  -1.366463334   0.270240523
