19
charge=0 charge_a=0 charge_b=0 selection_a=1-12 selection_b=13-19 scaling=1.05 benchmark_Eint=-4.898 benchmark_unit=kcal/mol group=noHB
  H   -0.852726913   2.138323577  -1.185626004
  H   -3.119751519  -0.000000000   1.750585778
  H   -2.364888254   2.140586367   0.771127526
  H   -0.852726913  -2.138323577  -1.185626004
  H   -2.364888254  -2.140586367   0.771127526
  C   -2.461391939  -0.000000000   0.893228815
  C   -2.037779802   1.204312873   0.341318333
  C   -1.191906718   1.203940352  -0.762466336
  C   -0.770738320   0.000000000  -1.315333955
  C   -1.191906718  -1.203940352  -0.762466336
  C   -2.037779802  -1.204312873   0.341318333
  H   -0.101272588   0.000000000  -2.163135800
  H    1.866634316   0.903016601   2.064824139
  H    0.511707128  -0.000000000   1.338148395
  H    1.866634316  -0.903016601   2.064824139
  C    1.578898073  -0.000000000   1.541235609
  N    2.258624422  -0.000000000   0.211167416
  O    2.497631259  -1.082132343  -0.294178320
  O    2.497631259   1.082132343  -0.294178320
