19
charge=0 charge_a=0 charge_b=0 selection_a=1-12 selection_b=13-19 scaling=1.1 benchmark_Eint=-4.638 benchmark_unit=kcal/mol group=noHB
  C   -0.696573375   0.782342182   1.068021614
  H   -0.023674357   1.194958114   1.805583922
  C   -0.789400080   1.373777348  -0.187053165
  H   -0.181453709   2.235472468  -0.419000147
  C   -1.646180116   0.840397437  -1.143428589
  H   -1.719555632   1.300667235  -2.118681198
  C   -2.405360794  -0.287085770  -0.847604158
  H   -3.071204747  -0.701286731  -1.591672917
  C   -2.309269248  -0.879995040   0.406588792
  H   -2.899803272  -1.755489216   0.637400960
  C   -1.455835648  -0.343554811   1.364919232
  H   -1.381170381  -0.803518551   2.340204921
  H    0.620601813  -1.140450357  -0.820072436
  H    1.447642152  -2.685171808  -0.475750585
  H    2.073351137  -1.610118770  -1.758512291
  C    1.573166264  -1.657941703  -0.794698335
  O    2.430668595  -1.051386110   0.220169070
  C    2.719843985   0.184843621   0.041941616
  N    3.007105246   1.296796283  -0.079910512
