26
charge=0 charge_a=0 charge_b=0 selection_a=1-12 selection_b=13-26 scaling=1.5 benchmark_Eint=-1.491 benchmark_unit=kcal/mol group=noHB
  C   -1.211709195   1.013668678  -0.990802005
  H   -0.729422502   1.769860947  -1.592981186
  C   -1.045066820  -0.329580900  -1.304492968
  H   -0.428734481  -0.612556096  -2.145130019
  C   -1.656655810  -1.304768023  -0.526304765
  H   -1.528507032  -2.349963626  -0.770756788
  C   -2.430763899  -0.938107189   0.568825000
  H   -2.903826018  -1.697561245   1.175309868
  C   -2.595468552   0.405419672   0.884111055
  H   -3.196288644   0.691447929   1.735884184
  C   -1.986564216   1.381553849   0.102788016
  H   -2.114178009   2.426692170   0.347666779
  H    1.683753089   0.168486186   1.594799272
  H    2.417620275  -1.336985325   2.143838018
  H    3.238131688   0.206777981   2.411433237
  H    4.119321784  -2.471470841   0.519729238
  H    2.529481144   2.056609710   0.446578984
  H    4.159615559   1.995878104   1.116332597
  H    3.912133163   2.552922628  -0.538415403
  H    2.539300725  -2.385838765  -0.234569877
  H    3.975911968  -1.850925156  -1.139469995
  C    3.321573706  -0.488800798   0.373022744
  N    3.747306269   0.490356487  -0.312996223
  C    3.573352239   1.836018081   0.205981010
  C    3.503783334  -1.879613345  -0.161799394
  C    2.628766941  -0.363567820   1.709044668
