18
charge=0 charge_a=0 charge_b=0 selection_a=1-12 selection_b=13-18 scaling=0.85 benchmark_Eint=-2.173 benchmark_unit=kcal/mol group=noHB
  C    0.520765291   0.900082305  -1.012859620
  H   -0.073027854   1.430276323  -1.743118987
  C    1.241512116  -0.228221216  -1.385041431
  H    1.219301526  -0.569177066  -2.410633666
  C    1.990744666  -0.919846932  -0.438897883
  H    2.551860679  -1.797016178  -0.729072064
  C    2.019423081  -0.480879461   0.879674038
  H    2.602745913  -1.016346919   1.615517403
  C    1.298445848   0.649654872   1.251494929
  H    1.319957642   0.990939734   2.276905238
  C    0.549032482   1.339319358   0.305631698
  H   -0.023232499   2.208554044   0.595181244
  H   -1.891583231  -1.958033965   1.053330912
  H   -0.393692424  -1.053703348   0.737574257
  H   -1.215005755  -1.893790358  -0.585493142
  C   -2.714060003   0.808698000  -0.155556664
  N   -2.121507563  -0.166421163   0.067279011
  C   -1.363631923  -1.334352187   0.335034022
