19
charge=0 charge_a=0 charge_b=0 selection_a=1-12 selection_b=13-19 scaling=0.95 benchmark_Eint=-5.063 benchmark_unit=kcal/mol group=noHB
  C   -0.696573375   0.782342182   1.068021614
  H   -0.023674357   1.194958114   1.805583922
  C   -0.789400080   1.373777348  -0.187053165
  H   -0.181453709   2.235472468  -0.419000147
  C   -1.646180116   0.840397437  -1.143428589
  H   -1.719555632   1.300667235  -2.118681198
  C   -2.405360794  -0.287085770  -0.847604158
  H   -3.071204747  -0.701286731  -1.591672917
  C   -2.309269248  -0.879995040   0.406588792
  H   -2.899803272  -1.755489216   0.637400960
  C   -1.455835648  -0.343554811   1.364919232
  H   -1.381170381  -0.803518551   2.340204921
  H    0.208761627  -1.074705864  -0.790809186
  H    1.035801966  -2.619427315  -0.446487335
  H    1.661510951  -1.544374277  -1.729249041
  C    1.161326078  -1.592197210  -0.765435085
  O    2.018828409  -0.985641617   0.249432320
  C    2.308003799   0.250588114   0.071204866
  N    2.595265060   1.362540776  -0.050647262
