26
charge=0 charge_a=0 charge_b=0 selection_a=1-12 selection_b=13-26 scaling=1.25 benchmark_Eint=-2.870 benchmark_unit=kcal/mol group=noHB
  C   -1.211709195   1.013668678  -0.990802005
  H   -0.729422502   1.769860947  -1.592981186
  C   -1.045066820  -0.329580900  -1.304492968
  H   -0.428734481  -0.612556096  -2.145130019
  C   -1.656655810  -1.304768023  -0.526304765
  H   -1.528507032  -2.349963626  -0.770756788
  C   -2.430763899  -0.938107189   0.568825000
  H   -2.903826018  -1.697561245   1.175309868
  C   -2.595468552   0.405419672   0.884111055
  H   -3.196288644   0.691447929   1.735884184
  C   -1.986564216   1.381553849   0.102788016
  H   -2.114178009   2.426692170   0.347666779
  H    1.012083347   0.182514751   1.517043502
  H    1.745950533  -1.322956760   2.066082248
  H    2.566461946   0.220806546   2.333677467
  H    3.447652042  -2.457442276   0.441973468
  H    1.857811402   2.070638275   0.368823214
  H    3.487945817   2.009906669   1.038576827
  H    3.240463421   2.566951193  -0.616171173
  H    1.867630983  -2.371810200  -0.312325647
  H    3.304242226  -1.836896591  -1.217225765
  C    2.649903964  -0.474772233   0.295266974
  N    3.075636527   0.504385052  -0.390751993
  C    2.901682497   1.850046646   0.128225240
  C    2.832113592  -1.865584780  -0.239555164
  C    1.957097199  -0.349539255   1.631288898
