23
charge=0 charge_a=0 charge_b=0 selection_a=1-12 selection_b=13-23 scaling=0.95 benchmark_Eint=-3.848 benchmark_unit=kcal/mol group=noHB
  C   -0.997467309  -0.310452327   1.295783081
  H   -0.320915482  -0.360395751   2.136237127
  C   -1.784824606   0.819725932   1.108978163
  H   -1.722014599   1.640684454   1.808682722
  C   -2.642398943   0.897205209   0.018230420
  H   -3.254062556   1.776486065  -0.127157584
  C   -2.709677541  -0.154178227  -0.889626903
  H   -3.374533034  -0.093011475  -1.739728052
  C   -1.919696644  -1.282929744  -0.704687097
  H   -1.967831626  -2.098586549  -1.412203677
  C   -1.065199852  -1.361138772   0.389285831
  H   -0.447317449  -2.236736333   0.528552209
  H    2.910020240  -2.296720868  -0.177824000
  H    3.629422605  -0.851635685   0.586348186
  H    2.107047192  -1.506330261   1.207305277
  H    0.661121023   2.400760711  -1.010927361
  C    1.615098334   0.665484036  -0.240401960
  O    1.974066088  -0.571091821  -0.645053168
  C    2.703079305  -1.350346334   0.310347900
  C    0.804224149   1.363434563  -1.292429073
  O    1.911888837   1.116144337   0.835974704
  H   -0.164855310   0.873433268  -1.374738607
  H    1.295658579   1.295136097  -2.260879576
