26
charge=0 charge_a=0 charge_b=0 selection_a=1-12 selection_b=13-26 scaling=0.8 benchmark_Eint=0.271 benchmark_unit=kcal/mol group=noHB
  C   -1.211709195   1.013668678  -0.990802005
  H   -0.729422502   1.769860947  -1.592981186
  C   -1.045066820  -0.329580900  -1.304492968
  H   -0.428734481  -0.612556096  -2.145130019
  C   -1.656655810  -1.304768023  -0.526304765
  H   -1.528507032  -2.349963626  -0.770756788
  C   -2.430763899  -0.938107189   0.568825000
  H   -2.903826018  -1.697561245   1.175309868
  C   -2.595468552   0.405419672   0.884111055
  H   -3.196288644   0.691447929   1.735884184
  C   -1.986564216   1.381553849   0.102788016
  H   -2.114178009   2.426692170   0.347666779
  H   -0.196922189   0.207766168   1.377083114
  H    0.536944997  -1.297705343   1.926121860
  H    1.357456410   0.246057963   2.193717079
  H    2.238646506  -2.432190859   0.302013080
  H    0.648805866   2.095889692   0.228862826
  H    2.278940281   2.035158086   0.898616439
  H    2.031457885   2.592202610  -0.756131561
  H    0.658625447  -2.346558783  -0.452286035
  H    2.095236690  -1.811645174  -1.357186153
  C    1.440898428  -0.449520816   0.155306586
  N    1.866630991   0.529636469  -0.530712381
  C    1.692676961   1.875298063  -0.011735148
  C    1.623108056  -1.840333363  -0.379515552
  C    0.748091663  -0.324287838   1.491328510
