18
charge=0 charge_a=0 charge_b=0 selection_a=1-12 selection_b=13-18 scaling=1.25 benchmark_Eint=-2.784 benchmark_unit=kcal/mol group=noHB
  C    0.940780821  -1.235982804   0.695185784
  H    0.889524985  -2.170679943   1.235249829
  C    1.000587489  -0.034444661   1.390694540
  H    0.994289335  -0.033574284   2.471266132
  C    1.063658225   1.169034547   0.695609618
  H    1.107469241   2.103787908   1.235984764
  C    1.063658225   1.169034547  -0.695609618
  H    1.107469241   2.103787908  -1.235984764
  C    1.000587489  -0.034444661  -1.390694540
  H    0.994289335  -0.033574284  -2.471266132
  C    0.940780821  -1.235982804  -0.695185784
  H    0.889524985  -2.170679943  -1.235249829
  O   -2.932011607   0.781035819   0.000000000
  H   -1.974012728   0.859669724   0.000000000
  C   -3.273179171  -0.594744946   0.000000000
  H   -4.359448492  -0.655485230   0.000000000
  H   -2.894821605  -1.110287900   0.887206837
  H   -2.894821605  -1.110287900  -0.887206837
