18
charge=0 charge_a=0 charge_b=0 selection_a=1-12 selection_b=13-18 scaling=0.95 benchmark_Eint=-3.962 benchmark_unit=kcal/mol group=noHB
  C    0.940780821  -1.235982804   0.695185784
  H    0.889524985  -2.170679943   1.235249829
  C    1.000587489  -0.034444661   1.390694540
  H    0.994289335  -0.033574284   2.471266132
  C    1.063658225   1.169034547   0.695609618
  H    1.107469241   2.103787908   1.235984764
  C    1.063658225   1.169034547  -0.695609618
  H    1.107469241   2.103787908  -1.235984764
  C    1.000587489  -0.034444661  -1.390694540
  H    0.994289335  -0.033574284  -2.471266132
  C    0.940780821  -1.235982804  -0.695185784
  H    0.889524985  -2.170679943  -1.235249829
  O   -2.174454524   0.755484044  -0.000000000
  H   -1.216455645   0.834117949  -0.000000000
  C   -2.515622088  -0.620296721  -0.000000000
  H   -3.601891409  -0.681037005  -0.000000000
  H   -2.137264522  -1.135839675   0.887206837
  H   -2.137264522  -1.135839675  -0.887206837
