19
charge=0 charge_a=0 charge_b=0 selection_a=1-12 selection_b=13-19 scaling=1.25 benchmark_Eint=-3.430 benchmark_unit=kcal/mol group=noHB
  C   -0.696573375   0.782342182   1.068021614
  H   -0.023674357   1.194958114   1.805583922
  C   -0.789400080   1.373777348  -0.187053165
  H   -0.181453709   2.235472468  -0.419000147
  C   -1.646180116   0.840397437  -1.143428589
  H   -1.719555632   1.300667235  -2.118681198
  C   -2.405360794  -0.287085770  -0.847604158
  H   -3.071204747  -0.701286731  -1.591672917
  C   -2.309269248  -0.879995040   0.406588792
  H   -2.899803272  -1.755489216   0.637400960
  C   -1.455835648  -0.343554811   1.364919232
  H   -1.381170381  -0.803518551   2.340204921
  H    1.032441999  -1.206194849  -0.849335686
  H    1.859482338  -2.750916300  -0.505013835
  H    2.485191323  -1.675863262  -1.787775541
  C    1.985006450  -1.723686195  -0.823961585
  O    2.842508781  -1.117130602   0.190905820
  C    3.131684171   0.119099129   0.012678366
  N    3.418945432   1.231051791  -0.109173762
