18
charge=0 charge_a=0 charge_b=0 selection_a=1-12 selection_b=13-18 scaling=0.85 benchmark_Eint=-1.799 benchmark_unit=kcal/mol group=noHB
  C    2.047431404  -0.891219532  -0.514382104
  H    2.591526914  -1.741824451  -0.900196316
  C    1.991562470  -0.665123736   0.856630170
  H    2.492037268  -1.340005461   1.536665921
  C    1.292064296   0.429821191   1.352158661
  H    1.246250943   0.604565520   2.417801092
  C    0.648004694   1.297042135   0.477772988
  H    0.094470980   2.141287556   0.862938515
  C    0.702326949   1.070269624  -0.892405485
  H    0.190606508   1.737448190  -1.570659521
  C    1.402447258  -0.023251761  -1.388585423
  H    1.441296473  -0.201033631  -2.453893550
  H   -0.276579474  -1.324533339   0.021938922
  H   -1.783914001  -2.224470954  -0.102237813
  H   -1.487650606  -1.191012960   1.351209398
  C   -1.335475849  -1.306170532   0.279625940
  N   -1.938193685  -0.195088163  -0.479886126
  O   -2.466419343   0.638910314   0.202623401
