18
charge=0 charge_a=0 charge_b=0 selection_a=1-12 selection_b=13-18 scaling=0.95 benchmark_Eint=-3.894 benchmark_unit=kcal/mol group=noHB
  C    0.520765291   0.900082305  -1.012859620
  H   -0.073027854   1.430276323  -1.743118987
  C    1.241512116  -0.228221216  -1.385041431
  H    1.219301526  -0.569177066  -2.410633666
  C    1.990744666  -0.919846932  -0.438897883
  H    2.551860679  -1.797016178  -0.729072064
  C    2.019423081  -0.480879461   0.879674038
  H    2.602745913  -1.016346919   1.615517403
  C    1.298445848   0.649654872   1.251494929
  H    1.319957642   0.990939734   2.276905238
  C    0.549032482   1.339319358   0.305631698
  H   -0.023232499   2.208554044   0.595181244
  H   -2.166992452  -2.003552749   1.067778079
  H   -0.669101645  -1.099222132   0.752021424
  H   -1.490414976  -1.939309142  -0.571045975
  C   -2.989469224   0.763179216  -0.141109497
  N   -2.396916784  -0.211939947   0.081726178
  C   -1.639041144  -1.379870971   0.349481189
