19
charge=0 charge_a=0 charge_b=0 selection_a=1-12 selection_b=13-19 scaling=1.5 benchmark_Eint=-1.346 benchmark_unit=kcal/mol group=noHB
  C    0.704411816   0.819035160   1.041282212
  H    0.036062716   1.269041494   1.761245311
  C    1.407929680  -0.333745057   1.369206993
  H    1.289082193  -0.778707992   2.346816594
  C    2.258303583  -0.917935899   0.437372897
  H    2.804579633  -1.815218549   0.692009566
  C    2.405197558  -0.348697015  -0.822779104
  H    3.066985102  -0.802337246  -1.547119414
  C    1.700501457   0.804186522  -1.150626819
  H    1.813533805   1.246615125  -2.130346952
  C    0.849538092   1.387837626  -0.218603247
  H    0.293409220   2.278154253  -0.473994097
  H   -3.264687379  -1.913225380  -1.806901085
  H   -1.802449106  -1.458439430  -0.896452834
  H   -2.700067333  -2.922719714  -0.466000103
  C   -2.793162141  -1.903206546  -0.822692209
  N   -3.628525530  -1.189698030   0.157641404
  N   -3.837792197  -0.007761662  -0.069813858
  N   -4.095832013   1.087780213  -0.174487291
