19
charge=0 charge_a=0 charge_b=0 selection_a=1-12 selection_b=13-19 scaling=1.0 benchmark_Eint=-5.153 benchmark_unit=kcal/mol group=noHB
  C   -0.696573375   0.782342182   1.068021614
  H   -0.023674357   1.194958114   1.805583922
  C   -0.789400080   1.373777348  -0.187053165
  H   -0.181453709   2.235472468  -0.419000147
  C   -1.646180116   0.840397437  -1.143428589
  H   -1.719555632   1.300667235  -2.118681198
  C   -2.405360794  -0.287085770  -0.847604158
  H   -3.071204747  -0.701286731  -1.591672917
  C   -2.309269248  -0.879995040   0.406588792
  H   -2.899803272  -1.755489216   0.637400960
  C   -1.455835648  -0.343554811   1.364919232
  H   -1.381170381  -0.803518551   2.340204921
  H    0.346041689  -1.096620695  -0.800563603
  H    1.173082028  -2.641342146  -0.456241752
  H    1.798791013  -1.566289108  -1.739003458
  C    1.298606140  -1.614112041  -0.775189502
  O    2.156108471  -1.007556448   0.239677903
  C    2.445283861   0.228673283   0.061450449
  N    2.732545122   1.340625945  -0.060401679
