26
charge=0 charge_a=0 charge_b=0 selection_a=1-12 selection_b=13-26 scaling=2.0 benchmark_Eint=-0.444 benchmark_unit=kcal/mol group=noHB
  C   -1.211709195   1.013668678  -0.990802005
  H   -0.729422502   1.769860947  -1.592981186
  C   -1.045066820  -0.329580900  -1.304492968
  H   -0.428734481  -0.612556096  -2.145130019
  C   -1.656655810  -1.304768023  -0.526304765
  H   -1.528507032  -2.349963626  -0.770756788
  C   -2.430763899  -0.938107189   0.568825000
  H   -2.903826018  -1.697561245   1.175309868
  C   -2.595468552   0.405419672   0.884111055
  H   -3.196288644   0.691447929   1.735884184
  C   -1.986564216   1.381553849   0.102788016
  H   -2.114178009   2.426692170   0.347666779
  H    3.027092573   0.140429056   1.750310814
  H    3.760959759  -1.365042455   2.299349560
  H    4.581471172   0.178720851   2.566944779
  H    5.462661268  -2.499527971   0.675240780
  H    3.872820628   2.028552580   0.602090526
  H    5.502955043   1.967820974   1.271844139
  H    5.255472647   2.524865498  -0.382903861
  H    3.882640209  -2.413895895  -0.079058335
  H    5.319251452  -1.878982286  -0.983958453
  C    4.664913190  -0.516857928   0.528534286
  N    5.090645753   0.462299357  -0.157484681
  C    4.916691723   1.807960951   0.361492552
  C    4.847122818  -1.907670475  -0.006287852
  C    3.972106425  -0.391624950   1.864556210
