18
charge=0 charge_a=0 charge_b=0 selection_a=1-12 selection_b=13-18 scaling=2.0 benchmark_Eint=-0.527 benchmark_unit=kcal/mol group=noHB
  C    0.940780821  -1.235982804   0.695185784
  H    0.889524985  -2.170679943   1.235249829
  C    1.000587489  -0.034444661   1.390694540
  H    0.994289335  -0.033574284   2.471266132
  C    1.063658225   1.169034547   0.695609618
  H    1.107469241   2.103787908   1.235984764
  C    1.063658225   1.169034547  -0.695609618
  H    1.107469241   2.103787908  -1.235984764
  C    1.000587489  -0.034444661  -1.390694540
  H    0.994289335  -0.033574284  -2.471266132
  C    0.940780821  -1.235982804  -0.695185784
  H    0.889524985  -2.170679943  -1.235249829
  O   -4.825904313   0.844915259   0.000000000
  H   -3.867905434   0.923549164   0.000000000
  C   -5.167071877  -0.530865506   0.000000000
  H   -6.253341198  -0.591605790   0.000000000
  H   -4.788714311  -1.046408460   0.887206837
  H   -4.788714311  -1.046408460  -0.887206837
