26
charge=0 charge_a=0 charge_b=0 selection_a=1-12 selection_b=13-26 scaling=0.95 benchmark_Eint=-4.218 benchmark_unit=kcal/mol group=noHB
  C   -1.211709195   1.013668678  -0.990802005
  H   -0.729422502   1.769860947  -1.592981186
  C   -1.045066820  -0.329580900  -1.304492968
  H   -0.428734481  -0.612556096  -2.145130019
  C   -1.656655810  -1.304768023  -0.526304765
  H   -1.528507032  -2.349963626  -0.770756788
  C   -2.430763899  -0.938107189   0.568825000
  H   -2.903826018  -1.697561245   1.175309868
  C   -2.595468552   0.405419672   0.884111055
  H   -3.196288644   0.691447929   1.735884184
  C   -1.986564216   1.381553849   0.102788016
  H   -2.114178009   2.426692170   0.347666779
  H    0.206079657   0.199349029   1.423736577
  H    0.939946843  -1.306122482   1.972775323
  H    1.760458256   0.237640824   2.240370542
  H    2.641648352  -2.440607998   0.348666543
  H    1.051807712   2.087472553   0.275516289
  H    2.681942127   2.026740947   0.945269902
  H    2.434459731   2.583785471  -0.709478098
  H    1.061627293  -2.354975922  -0.405632572
  H    2.498238536  -1.820062313  -1.310532690
  C    1.843900274  -0.457937955   0.201960049
  N    2.269632837   0.521219330  -0.484058918
  C    2.095678807   1.866880924   0.034918315
  C    2.026109902  -1.848750502  -0.332862089
  C    1.151093509  -0.332704977   1.537981973
