19
charge=0 charge_a=0 charge_b=0 selection_a=1-12 selection_b=13-19 scaling=1.05 benchmark_Eint=-4.968 benchmark_unit=kcal/mol group=noHB
  C   -0.696573375   0.782342182   1.068021614
  H   -0.023674357   1.194958114   1.805583922
  C   -0.789400080   1.373777348  -0.187053165
  H   -0.181453709   2.235472468  -0.419000147
  C   -1.646180116   0.840397437  -1.143428589
  H   -1.719555632   1.300667235  -2.118681198
  C   -2.405360794  -0.287085770  -0.847604158
  H   -3.071204747  -0.701286731  -1.591672917
  C   -2.309269248  -0.879995040   0.406588792
  H   -2.899803272  -1.755489216   0.637400960
  C   -1.455835648  -0.343554811   1.364919232
  H   -1.381170381  -0.803518551   2.340204921
  H    0.483321751  -1.118535526  -0.810318020
  H    1.310362090  -2.663256977  -0.465996169
  H    1.936071075  -1.588203939  -1.748757875
  C    1.435886202  -1.636026872  -0.784943919
  O    2.293388533  -1.029471279   0.229923486
  C    2.582563923   0.206758452   0.051696032
  N    2.869825184   1.318711114  -0.070156096
