18
charge=0 charge_a=0 charge_b=0 selection_a=1-12 selection_b=13-18 scaling=1.0 benchmark_Eint=-4.007 benchmark_unit=kcal/mol group=noHB
  C    0.520765291   0.900082305  -1.012859620
  H   -0.073027854   1.430276323  -1.743118987
  C    1.241512116  -0.228221216  -1.385041431
  H    1.219301526  -0.569177066  -2.410633666
  C    1.990744666  -0.919846932  -0.438897883
  H    2.551860679  -1.797016178  -0.729072064
  C    2.019423081  -0.480879461   0.879674038
  H    2.602745913  -1.016346919   1.615517403
  C    1.298445848   0.649654872   1.251494929
  H    1.319957642   0.990939734   2.276905238
  C    0.549032482   1.339319358   0.305631698
  H   -0.023232499   2.208554044   0.595181244
  H   -2.304697062  -2.026312141   1.075001662
  H   -0.806806255  -1.121981524   0.759245007
  H   -1.628119586  -1.962068534  -0.563822392
  C   -3.127173834   0.740419824  -0.133885914
  N   -2.534621394  -0.234699339   0.088949761
  C   -1.776745754  -1.402630363   0.356704772
