19
charge=0 charge_a=0 charge_b=0 selection_a=1-12 selection_b=13-19 scaling=1.25 benchmark_Eint=-2.638 benchmark_unit=kcal/mol group=noHB
  C    0.704411816   0.819035160   1.041282212
  H    0.036062716   1.269041494   1.761245311
  C    1.407929680  -0.333745057   1.369206993
  H    1.289082193  -0.778707992   2.346816594
  C    2.258303583  -0.917935899   0.437372897
  H    2.804579633  -1.815218549   0.692009566
  C    2.405197558  -0.348697015  -0.822779104
  H    3.066985102  -0.802337246  -1.547119414
  C    1.700501457   0.804186522  -1.150626819
  H    1.813533805   1.246615125  -2.130346952
  C    0.849538092   1.387837626  -0.218603247
  H    0.293409220   2.278154253  -0.473994097
  H   -2.546632785  -1.804666978  -1.756436963
  H   -1.084394512  -1.349881028  -0.845988712
  H   -1.982012739  -2.814161312  -0.415535981
  C   -2.075107547  -1.794648144  -0.772228087
  N   -2.910470936  -1.081139628   0.208105526
  N   -3.119737603   0.100796740  -0.019349736
  N   -3.377777419   1.196338615  -0.124023169
