23
charge=0 charge_a=0 charge_b=0 selection_a=1-12 selection_b=13-23 scaling=0.85 benchmark_Eint=-1.881 benchmark_unit=kcal/mol group=noHB
  C   -0.997467309  -0.310452327   1.295783081
  H   -0.320915482  -0.360395751   2.136237127
  C   -1.784824606   0.819725932   1.108978163
  H   -1.722014599   1.640684454   1.808682722
  C   -2.642398943   0.897205209   0.018230420
  H   -3.254062556   1.776486065  -0.127157584
  C   -2.709677541  -0.154178227  -0.889626903
  H   -3.374533034  -0.093011475  -1.739728052
  C   -1.919696644  -1.282929744  -0.704687097
  H   -1.967831626  -2.098586549  -1.412203677
  C   -1.065199852  -1.361138772   0.389285831
  H   -0.447317449  -2.236736333   0.528552209
  H    2.626348771  -2.332195383  -0.146791202
  H    3.345751136  -0.887110200   0.617380984
  H    1.823375723  -1.541804776   1.238338075
  H    0.377449554   2.365286196  -0.979894563
  C    1.331426865   0.630009521  -0.209369162
  O    1.690394619  -0.606566336  -0.614020370
  C    2.419407836  -1.385820849   0.341380698
  C    0.520552680   1.327960048  -1.261396275
  O    1.628217368   1.080669822   0.867007502
  H   -0.448526779   0.837958753  -1.343705809
  H    1.011987110   1.259661582  -2.229846778
