23
charge=0 charge_a=0 charge_b=0 selection_a=1-12 selection_b=13-23 scaling=0.8 benchmark_Eint=0.764 benchmark_unit=kcal/mol group=noHB
  C   -0.997467309  -0.310452327   1.295783081
  H   -0.320915482  -0.360395751   2.136237127
  C   -1.784824606   0.819725932   1.108978163
  H   -1.722014599   1.640684454   1.808682722
  C   -2.642398943   0.897205209   0.018230420
  H   -3.254062556   1.776486065  -0.127157584
  C   -2.709677541  -0.154178227  -0.889626903
  H   -3.374533034  -0.093011475  -1.739728052
  C   -1.919696644  -1.282929744  -0.704687097
  H   -1.967831626  -2.098586549  -1.412203677
  C   -1.065199852  -1.361138772   0.389285831
  H   -0.447317449  -2.236736333   0.528552209
  H    2.484513037  -2.349932641  -0.131274803
  H    3.203915402  -0.904847458   0.632897383
  H    1.681539989  -1.559542034   1.253854474
  H    0.235613820   2.347548938  -0.964378164
  C    1.189591131   0.612272263  -0.193852763
  O    1.548558885  -0.624303594  -0.598503971
  C    2.277572102  -1.403558107   0.356897097
  C    0.378716946   1.310222790  -1.245879876
  O    1.486381634   1.062932564   0.882523901
  H   -0.590362513   0.820221495  -1.328189410
  H    0.870151376   1.241924324  -2.214330379
