23
charge=0 charge_a=0 charge_b=0 selection_a=1-12 selection_b=13-23 scaling=1.1 benchmark_Eint=-3.533 benchmark_unit=kcal/mol group=noHB
  C   -0.997467309  -0.310452327   1.295783081
  H   -0.320915482  -0.360395751   2.136237127
  C   -1.784824606   0.819725932   1.108978163
  H   -1.722014599   1.640684454   1.808682722
  C   -2.642398943   0.897205209   0.018230420
  H   -3.254062556   1.776486065  -0.127157584
  C   -2.709677541  -0.154178227  -0.889626903
  H   -3.374533034  -0.093011475  -1.739728052
  C   -1.919696644  -1.282929744  -0.704687097
  H   -1.967831626  -2.098586549  -1.412203677
  C   -1.065199852  -1.361138772   0.389285831
  H   -0.447317449  -2.236736333   0.528552209
  H    3.335527443  -2.243509095  -0.224373197
  H    4.054929808  -0.798423912   0.539798989
  H    2.532554395  -1.453118488   1.160756080
  H    1.086628226   2.453972484  -1.057476558
  C    2.040605537   0.718695809  -0.286951157
  O    2.399573291  -0.517880048  -0.691602365
  C    3.128586508  -1.297134561   0.263798703
  C    1.229731352   1.416646336  -1.338978270
  O    2.337396040   1.169356110   0.789425507
  H    0.260651893   0.926645041  -1.421287804
  H    1.721165782   1.348347870  -2.307428773
