19
charge=0 charge_a=0 charge_b=0 selection_a=1-12 selection_b=13-19 scaling=2.0 benchmark_Eint=-0.256 benchmark_unit=kcal/mol group=noHB
  C   -0.057946270  -0.394287988  -0.360232738
  H    0.957754893  -0.688375709  -0.588000088
  C   -0.413078131   0.950298273  -0.379703093
  H    0.326908562   1.697747607  -0.629769587
  C   -1.714726895   1.335621941  -0.079947547
  H   -1.987369865   2.381730089  -0.096841142
  C   -2.666788815   0.374954362   0.241591739
  H   -3.679307069   0.673362370   0.475012594
  C   -2.315382452  -0.969884120   0.262083415
  H   -3.055444070  -1.717602073   0.511400089
  C   -1.012977370  -1.352555879  -0.038436286
  H   -0.741179491  -2.399005622  -0.022961296
  N    5.964580303  -0.604270351  -0.071474885
  H    6.755893875  -0.648448603  -0.699285984
  H    6.093757286  -1.334117766   0.616514843
  C    5.879031477   0.707784940   0.572147276
  H    4.999993849   0.734942385   1.214208353
  H    6.750934937   0.983272575   1.175703439
  H    5.744457486   1.472449717  -0.192011570
