19
charge=0 charge_a=0 charge_b=0 selection_a=1-12 selection_b=13-19 scaling=1.05 benchmark_Eint=-4.086 benchmark_unit=kcal/mol group=noHB
  C    0.704411816   0.819035160   1.041282212
  H    0.036062716   1.269041494   1.761245311
  C    1.407929680  -0.333745057   1.369206993
  H    1.289082193  -0.778707992   2.346816594
  C    2.258303583  -0.917935899   0.437372897
  H    2.804579633  -1.815218549   0.692009566
  C    2.405197558  -0.348697015  -0.822779104
  H    3.066985102  -0.802337246  -1.547119414
  C    1.700501457   0.804186522  -1.150626819
  H    1.813533805   1.246615125  -2.130346952
  C    0.849538092   1.387837626  -0.218603247
  H    0.293409220   2.278154253  -0.473994097
  H   -1.972189110  -1.717820256  -1.716065665
  H   -0.509950837  -1.263034306  -0.805617414
  H   -1.407569064  -2.727314590  -0.375164683
  C   -1.500663872  -1.707801422  -0.731856789
  N   -2.336027261  -0.994292906   0.248476824
  N   -2.545293928   0.187643462   0.021021562
  N   -2.803333744   1.283185337  -0.083651871
