19
charge=0 charge_a=0 charge_b=0 selection_a=1-12 selection_b=13-19 scaling=0.9 benchmark_Eint=-1.917 benchmark_unit=kcal/mol group=noHB
  C   -0.057946270  -0.394287988  -0.360232738
  H    0.957754893  -0.688375709  -0.588000088
  C   -0.413078131   0.950298273  -0.379703093
  H    0.326908562   1.697747607  -0.629769587
  C   -1.714726895   1.335621941  -0.079947547
  H   -1.987369865   2.381730089  -0.096841142
  C   -2.666788815   0.374954362   0.241591739
  H   -3.679307069   0.673362370   0.475012594
  C   -2.315382452  -0.969884120   0.262083415
  H   -3.055444070  -1.717602073   0.511400089
  C   -1.012977370  -1.352555879  -0.038436286
  H   -0.741179491  -2.399005622  -0.022961296
  N    3.193441582  -0.623092835  -0.191515767
  H    3.984755154  -0.667271087  -0.819326866
  H    3.322618565  -1.352940250   0.496473961
  C    3.107892756   0.688962456   0.452106394
  H    2.228855128   0.716119901   1.094167471
  H    3.979796216   0.964450091   1.055662557
  H    2.973318765   1.453627233  -0.312052452
