21
charge=0 charge_a=0 charge_b=0 selection_a=1-12 selection_b=13-21 scaling=0.8 benchmark_Eint=3.936 benchmark_unit=kcal/mol group=noHB
  C    1.775085395   1.389089170  -0.228484677
  H    1.773889109   2.470241741  -0.227955780
  C    2.464222595   0.695184308   0.758093333
  H    2.999593212   1.235534203   1.526142737
  C    2.464222595  -0.695184308   0.758093333
  H    2.999593212  -1.235534203   1.526142737
  C    1.775085395  -1.389089170  -0.228484677
  H    1.773889109  -2.470241741  -0.227955780
  C    1.081500824  -0.694454396  -1.212618610
  H    0.534589594  -1.233620559  -1.972312575
  C    1.081500824   0.694454396  -1.212618610
  H    0.534589594   1.233620559  -1.972312575
  H   -2.487063388   1.369197411  -1.274779754
  H   -2.487063388  -1.369197411  -1.274779754
  H   -0.848531650   2.044821232   0.809610432
  H   -0.848531650  -2.044821232   0.809610432
  C   -1.962559383  -0.716199948  -0.600634689
  C   -1.962559383   0.716199948  -0.600634689
  C   -1.160723316   1.092927093   0.424549229
  O   -0.666467830   0.000000000   1.063817881
  C   -1.160723316  -1.092927093   0.424549229
