21
charge=0 charge_a=0 charge_b=0 selection_a=1-10 selection_b=11-21 scaling=1.1 benchmark_Eint=-4.053 benchmark_unit=kcal/mol group=noHB
  H   -1.897594621   0.846081697  -1.176706837
  H   -3.546198788   0.307382509  -0.818646532
  H   -2.819200661   1.639276078   0.100643200
  H   -2.627086273  -0.299510291   1.412920606
  H   -1.376641859  -2.210354777   0.822326550
  H   -1.076014494  -1.488471222  -0.760652326
  H   -2.703505052  -2.039357620  -0.344955621
  C   -2.612803907   0.679661132  -0.371854020
  N   -2.028302414  -0.233505582   0.601178325
  C   -1.795957078  -1.562386379   0.053509297
  H    1.560914341  -1.977748594  -0.291040100
  H    3.037314813  -1.918687669   0.708772983
  H    3.019933707  -1.200655728  -0.926478107
  H    0.655825347   2.696770156  -0.090436845
  C    1.322638861   0.679860519  -0.164091578
  O    2.052480132  -0.160947898   0.595663638
  C    2.438824247  -1.392732743  -0.027350280
  C    0.935273182   1.909884115   0.602469841
  O    1.019864246   0.440108005  -1.305804441
  H    0.073117130   1.649456920   1.215682974
  H    1.741030001   2.238025207   1.254016321
