25
charge=0 charge_a=0 charge_b=0 selection_a=1-12 selection_b=13-25 scaling=2.0 benchmark_Eint=-0.765 benchmark_unit=kcal/mol group=noHB
  C   -2.588294561  -0.143981675   1.391298266
  H   -2.582319804  -0.143526837   2.471746023
  C   -2.572739036  -1.346363851   0.695438569
  H   -2.555465651  -2.282258376   1.235489768
  C   -2.572739036  -1.346363851  -0.695438569
  H   -2.555465651  -2.282258376  -1.235489768
  C   -2.588294561  -0.143981675  -1.391298266
  H   -2.582319804  -0.143526837  -2.471746023
  C   -2.610367441   1.060884069  -0.696073456
  H   -2.628704881   1.996661961  -1.236615697
  C   -2.610367441   1.060884069   0.696073456
  H   -2.628704881   1.996661961   1.236615697
  H    5.545433369   2.305624788   0.000000000
  H    6.656509739  -1.842770306   0.000000000
  H    7.294935025   0.550986099   0.000000000
  H    2.520773982  -0.711675364   0.000000000
  H    2.123471980   1.537712612   0.000000000
  H    4.257739486  -2.462449557   0.000000000
  C    5.895533992  -1.076283664   0.000000000
  C    6.251405139   0.268558652   0.000000000
  C    5.280043047   1.258520350   0.000000000
  C    3.933618273   0.903351439   0.000000000
  C    3.567031693  -0.440221641   0.000000000
  C    4.550046766  -1.421495445   0.000000000
  O    3.013998783   1.908538872   0.000000000
