23
charge=0 charge_a=0 charge_b=0 selection_a=1-12 selection_b=13-23 scaling=0.85 benchmark_Eint=0.197 benchmark_unit=kcal/mol group=noHB
  C   -1.995972080  -1.365990694  -0.013379179
  H   -2.079955993  -2.420623281  -0.235185324
  C   -2.597860604  -0.430587591  -0.846031826
  H   -3.154821259  -0.757109774  -1.713177748
  C   -2.484061724   0.925997264  -0.563115053
  H   -2.952253390   1.654457028  -1.210348877
  C   -1.770103403   1.344374350   0.553083960
  H   -1.679099678   2.399068534   0.772090509
  C   -1.167287896   0.408164813   1.384519116
  H   -0.600408285   0.734033277   2.244550900
  C   -1.278478194  -0.946555961   1.100858993
  H   -0.793615791  -1.672604138   1.736956621
  H    2.033866195   2.150071518   0.810220518
  H    2.660159656  -0.016758963   1.840805438
  C    0.979078994   1.208210554  -0.817432619
  C    1.728605234   1.221347554   0.350269210
  C    2.077520641   0.007471545   0.927663784
  N    1.731894006  -1.174940318   0.418486633
  C    1.013270130  -1.172876380  -0.703292726
  C    0.614236045  -0.014589557  -1.357403913
  H    0.735222489  -2.143403874  -1.095177298
  H    0.016227645  -0.075453370  -2.254087065
  H    0.677029143   2.131641080  -1.290403959
