23
charge=0 charge_a=0 charge_b=0 selection_a=1-12 selection_b=13-23 scaling=1.5 benchmark_Eint=-0.782 benchmark_unit=kcal/mol group=noHB
  C   -1.995972080  -1.365990694  -0.013379179
  H   -2.079955993  -2.420623281  -0.235185324
  C   -2.597860604  -0.430587591  -0.846031826
  H   -3.154821259  -0.757109774  -1.713177748
  C   -2.484061724   0.925997264  -0.563115053
  H   -2.952253390   1.654457028  -1.210348877
  C   -1.770103403   1.344374350   0.553083960
  H   -1.679099678   2.399068534   0.772090509
  C   -1.167287896   0.408164813   1.384519116
  H   -0.600408285   0.734033277   2.244550900
  C   -1.278478194  -0.946555961   1.100858993
  H   -0.793615791  -1.672604138   1.736956621
  H    4.200266874   2.162438676   0.500488511
  H    4.826560335  -0.004391805   1.531073431
  C    3.145479673   1.220577712  -1.127164626
  C    3.895005913   1.233714712   0.040537203
  C    4.243921320   0.019838703   0.617931777
  N    3.898294685  -1.162573160   0.108754626
  C    3.179670809  -1.160509222  -1.013024733
  C    2.780636724  -0.002222399  -1.667135920
  H    2.901623168  -2.131036716  -1.404909305
  H    2.182628324  -0.063086212  -2.563819072
  H    2.843429822   2.144008238  -1.600135966
