25
charge=0 charge_a=0 charge_b=0 selection_a=1-12 selection_b=13-25 scaling=1.05 benchmark_Eint=-2.972 benchmark_unit=kcal/mol group=noHB
  C   -0.815365682   0.000000000   0.558244104
  H    0.217397037   0.000000000   0.879070342
  C   -1.479207223  -1.202282647   0.340554197
  H   -0.964841442  -2.138513206   0.507692645
  C   -2.800623804  -1.203592964  -0.091446771
  H   -3.314446492  -2.139836672  -0.259533563
  C   -3.461841253   0.000000000  -0.307791008
  H   -4.489216495   0.000000000  -0.644129659
  C   -2.800623804   1.203592964  -0.091446771
  H   -3.314446492   2.139836672  -0.259533563
  C   -1.479207223   1.202282647   0.340554197
  H   -0.964841442   2.138513206   0.507692645
  H    3.282813604  -1.285771165  -1.533633555
  H    2.611818186  -2.081203210  -0.096559389
  H    1.543574157  -1.196685202  -1.189559834
  H    1.543574157   1.196685202  -1.189559834
  H    3.282813604   1.285771165  -1.533633555
  H    2.611818186   2.081203210  -0.096559389
  H    4.839086594  -0.000000000   0.081324066
  H    4.048972546   0.882705100   1.402144851
  C    2.531317141  -1.199321785  -0.731176837
  N    2.704614066  -0.000000000   0.068336482
  C    2.531317141   1.199321785  -0.731176837
  C    3.975812338  -0.000000000   0.768041222
  H    4.048972546  -0.882705100   1.402144851
