21
charge=0 charge_a=0 charge_b=0 selection_a=1-10 selection_b=11-21 scaling=0.85 benchmark_Eint=-3.020 benchmark_unit=kcal/mol group=noHB
  H   -1.897594621   0.846081697  -1.176706837
  H   -3.546198788   0.307382509  -0.818646532
  H   -2.819200661   1.639276078   0.100643200
  H   -2.627086273  -0.299510291   1.412920606
  H   -1.376641859  -2.210354777   0.822326550
  H   -1.076014494  -1.488471222  -0.760652326
  H   -2.703505052  -2.039357620  -0.344955621
  C   -2.612803907   0.679661132  -0.371854020
  N   -2.028302414  -0.233505582   0.601178325
  C   -1.795957078  -1.562386379   0.053509297
  H    0.946730621  -2.085701404  -0.266948644
  H    2.423131093  -2.026640479   0.732864439
  H    2.405749987  -1.308608538  -0.902386651
  H    0.041641627   2.588817346  -0.066345389
  C    0.708455141   0.571907709  -0.140000122
  O    1.438296412  -0.268900708   0.619755094
  C    1.824640527  -1.500685553  -0.003258824
  C    0.321089462   1.801931305   0.626561297
  O    0.405680526   0.332155195  -1.281712985
  H   -0.541066590   1.541504110   1.239774430
  H    1.126846281   2.130072397   1.278107777
