25
charge=0 charge_a=0 charge_b=0 selection_a=1-12 selection_b=13-25 scaling=1.1 benchmark_Eint=-2.792 benchmark_unit=kcal/mol group=noHB
  C   -0.815365682   0.000000000   0.558244104
  H    0.217397037   0.000000000   0.879070342
  C   -1.479207223  -1.202282647   0.340554197
  H   -0.964841442  -2.138513206   0.507692645
  C   -2.800623804  -1.203592964  -0.091446771
  H   -3.314446492  -2.139836672  -0.259533563
  C   -3.461841253   0.000000000  -0.307791008
  H   -4.489216495   0.000000000  -0.644129659
  C   -2.800623804   1.203592964  -0.091446771
  H   -3.314446492   2.139836672  -0.259533563
  C   -1.479207223   1.202282647   0.340554197
  H   -0.964841442   2.138513206   0.507692645
  H    3.407379511  -1.285771165  -1.540885653
  H    2.736384093  -2.081203210  -0.103811487
  H    1.668140064  -1.196685202  -1.196811932
  H    1.668140064   1.196685202  -1.196811932
  H    3.407379511   1.285771165  -1.540885653
  H    2.736384093   2.081203210  -0.103811487
  H    4.963652501  -0.000000000   0.074071968
  H    4.173538453   0.882705100   1.394892753
  C    2.655883048  -1.199321785  -0.738428935
  N    2.829179973  -0.000000000   0.061084384
  C    2.655883048   1.199321785  -0.738428935
  C    4.100378245  -0.000000000   0.760789124
  H    4.173538453  -0.882705100   1.394892753
