25
charge=0 charge_a=0 charge_b=0 selection_a=1-12 selection_b=13-25 scaling=0.8 benchmark_Eint=-0.472 benchmark_unit=kcal/mol group=noHB
  C   -2.588294561  -0.143981675   1.391298266
  H   -2.582319804  -0.143526837   2.471746023
  C   -2.572739036  -1.346363851   0.695438569
  H   -2.555465651  -2.282258376   1.235489768
  C   -2.572739036  -1.346363851  -0.695438569
  H   -2.555465651  -2.282258376  -1.235489768
  C   -2.588294561  -0.143981675  -1.391298266
  H   -2.582319804  -0.143526837  -2.471746023
  C   -2.610367441   1.060884069  -0.696073456
  H   -2.628704881   1.996661961  -1.236615697
  C   -2.610367441   1.060884069   0.696073456
  H   -2.628704881   1.996661961   1.236615697
  H    2.631122577   2.144576725  -0.000000000
  H    3.742198947  -2.003818369  -0.000000000
  H    4.380624233   0.389938036  -0.000000000
  H   -0.393536810  -0.872723427  -0.000000000
  H   -0.790838812   1.376664549  -0.000000000
  H    1.343428694  -2.623497620  -0.000000000
  C    2.981223200  -1.237331727  -0.000000000
  C    3.337094347   0.107510589  -0.000000000
  C    2.365732255   1.097472287  -0.000000000
  C    1.019307481   0.742303376  -0.000000000
  C    0.652720901  -0.601269704  -0.000000000
  C    1.635735974  -1.582543508  -0.000000000
  O    0.099687991   1.747490809  -0.000000000
