13
charge=0 charge_a=0 charge_b=0 selection_a=1-6 selection_b=7-13 scaling=1.05 benchmark_Eint=-1.862 benchmark_unit=kcal/mol group=noHB
  H    1.294018207   0.960871885  -0.637186517
  H    2.916429020   0.424116962  -1.340935199
  H    3.302207939  -0.976804619   0.648103092
  H    1.685569311  -0.428395564   1.338983622
  C    2.194953448   0.371451589  -0.536112520
  C    2.405240965  -0.382965144   0.532216837
  H   -2.110371659  -1.610735516  -1.077362523
  H   -1.713093341  -1.914353848   0.599835884
  H   -0.463099439  -1.244926996  -0.486526834
  H   -3.057758185   0.217081206   0.400449206
  C   -1.519915205  -1.238866456  -0.236748327
  C   -1.986701283   0.139516803   0.122180153
  O   -1.292652337   1.122896163   0.124079623
