17
charge=0 charge_a=0 charge_b=0 selection_a=1-10 selection_b=11-17 scaling=1.05 benchmark_Eint=-4.384 benchmark_unit=kcal/mol group=noHB
  H   -1.592921479  -1.429323857  -0.708200269
  H   -3.250429620  -0.836092020  -0.540212319
  H   -2.277341756  -0.390258178  -1.956338829
  H   -2.210834511   1.419034101  -0.465786460
  H   -1.276079319   1.362619971   1.698068629
  H   -1.031000382  -0.372776370   1.523613056
  H   -2.671177837   0.263640355   1.671251034
  C   -2.240191820  -0.570463452  -0.883008956
  N   -1.685304508   0.595033962  -0.207041763
  C   -1.677453949   0.458377518   1.243480767
  H    2.272362607   1.201612437  -1.576279436
  H    0.686442976   1.514636502  -0.815446202
  H    2.152642083   2.347429487  -0.232774963
  C    1.758131195   1.422421091  -0.638890596
  N    2.022058160   0.375237546   0.363223984
  N    1.538829481  -0.722765816   0.134478264
  N    1.146488257  -1.778567455   0.033075507
