17
charge=0 charge_a=0 charge_b=0 selection_a=1-10 selection_b=11-17 scaling=0.8 benchmark_Eint=-0.825 benchmark_unit=kcal/mol group=noHB
  H   -1.592921479  -1.429323857  -0.708200269
  H   -3.250429620  -0.836092020  -0.540212319
  H   -2.277341756  -0.390258178  -1.956338829
  H   -2.210834511   1.419034101  -0.465786460
  H   -1.276079319   1.362619971   1.698068629
  H   -1.031000382  -0.372776370   1.523613056
  H   -2.671177837   0.263640355   1.671251034
  C   -2.240191820  -0.570463452  -0.883008956
  N   -1.685304508   0.595033962  -0.207041763
  C   -1.677453949   0.458377518   1.243480767
  H    1.648337812   1.252991148  -1.556758087
  H    0.062418181   1.566015213  -0.795924853
  H    1.528617288   2.398808198  -0.213253614
  C    1.134106400   1.473799802  -0.619369247
  N    1.398033365   0.426616257   0.382745333
  N    0.914804686  -0.671387105   0.153999613
  N    0.522463462  -1.727188744   0.052596856
