23
charge=0 charge_a=0 charge_b=0 selection_a=1-12 selection_b=13-23 scaling=0.9 benchmark_Eint=-2.115 benchmark_unit=kcal/mol group=noHB
  C   -1.995972080  -1.365990694  -0.013379179
  H   -2.079955993  -2.420623281  -0.235185324
  C   -2.597860604  -0.430587591  -0.846031826
  H   -3.154821259  -0.757109774  -1.713177748
  C   -2.484061724   0.925997264  -0.563115053
  H   -2.952253390   1.654457028  -1.210348877
  C   -1.770103403   1.344374350   0.553083960
  H   -1.679099678   2.399068534   0.772090509
  C   -1.167287896   0.408164813   1.384519116
  H   -0.600408285   0.734033277   2.244550900
  C   -1.278478194  -0.946555961   1.100858993
  H   -0.793615791  -1.672604138   1.736956621
  H    2.200512401   2.151022838   0.786394979
  H    2.826805862  -0.015807643   1.816979899
  C    1.145725200   1.209161874  -0.841258158
  C    1.895251440   1.222298874   0.326443671
  C    2.244166847   0.008422865   0.903838245
  N    1.898540212  -1.173988998   0.394661094
  C    1.179916336  -1.171925060  -0.727118265
  C    0.780882251  -0.013638237  -1.381229452
  H    0.901868695  -2.142452554  -1.119002837
  H    0.182873851  -0.074502050  -2.277912604
  H    0.843675349   2.132592400  -1.314229498
