17
charge=0 charge_a=0 charge_b=0 selection_a=1-10 selection_b=11-17 scaling=1.5 benchmark_Eint=-1.701 benchmark_unit=kcal/mol group=noHB
  H   -1.592921479  -1.429323857  -0.708200269
  H   -3.250429620  -0.836092020  -0.540212319
  H   -2.277341756  -0.390258178  -1.956338829
  H   -2.210834511   1.419034101  -0.465786460
  H   -1.276079319   1.362619971   1.698068629
  H   -1.031000382  -0.372776370   1.523613056
  H   -2.671177837   0.263640355   1.671251034
  C   -2.240191820  -0.570463452  -0.883008956
  N   -1.685304508   0.595033962  -0.207041763
  C   -1.677453949   0.458377518   1.243480767
  H    3.395607237   1.109130756  -1.611417863
  H    1.809687606   1.422154821  -0.850584629
  H    3.275886713   2.254947806  -0.267913390
  C    2.881375825   1.329939410  -0.674029023
  N    3.145302790   0.282755865   0.328085557
  N    2.662074111  -0.815247497   0.099339837
  N    2.269732887  -1.871049136  -0.002062920
