24
charge=0 charge_a=0 charge_b=0 selection_a=1-12 selection_b=13-24 scaling=1.1 benchmark_Eint=-4.749 benchmark_unit=kcal/mol group=noHB
  C   -1.976256759   1.008109741  -0.898759276
  H   -2.022657206   1.892773290  -1.517517098
  C   -2.224051661   1.101113157   0.465757018
  H   -2.467164235   2.057073006   0.907382289
  C   -2.157497432  -0.036285359   1.263758996
  H   -2.350716751   0.035156672   2.324735868
  C   -1.846359844  -1.267099493   0.694377162
  H   -1.797925331  -2.151733357   1.313501145
  C   -1.598064213  -1.358474468  -0.670693118
  H   -1.350400076  -2.313323019  -1.111705367
  C   -1.661427900  -0.220819605  -1.466374051
  H   -1.461144094  -0.291042811  -2.525833931
  C    2.282267855  -1.737181265   0.291313848
  H    2.187751645  -2.224714650  -0.678195684
  H    1.386756610  -1.937370135   0.874754749
  H    3.147515158  -2.165626942   0.791979791
  C    2.535997193  -0.260056084   0.067266410
  O    3.571194208   0.144519298  -0.436087748
  N    1.543210247   0.573734594   0.468920705
  H    0.664424391   0.178564940   0.753426884
  C    1.608835243   2.000416368   0.232813143
  H    1.344473692   2.255879794  -0.795626752
  H    0.921345841   2.505146981   0.906576695
  H    2.621088546   2.348700231   0.417901186
