24
charge=0 charge_a=0 charge_b=0 selection_a=1-12 selection_b=13-24 scaling=0.85 benchmark_Eint=-2.973 benchmark_unit=kcal/mol group=noHB
  C   -1.976256759   1.008109741  -0.898759276
  H   -2.022657206   1.892773290  -1.517517098
  C   -2.224051661   1.101113157   0.465757018
  H   -2.467164235   2.057073006   0.907382289
  C   -2.157497432  -0.036285359   1.263758996
  H   -2.350716751   0.035156672   2.324735868
  C   -1.846359844  -1.267099493   0.694377162
  H   -1.797925331  -2.151733357   1.313501145
  C   -1.598064213  -1.358474468  -0.670693118
  H   -1.350400076  -2.313323019  -1.111705367
  C   -1.661427900  -0.220819605  -1.466374051
  H   -1.461144094  -0.291042811  -2.525833931
  C    1.629353097  -1.781227252   0.256468870
  H    1.534836887  -2.268760637  -0.713040662
  H    0.733841852  -1.981416122   0.839909771
  H    2.494600400  -2.209672929   0.757134813
  C    1.883082435  -0.304102071   0.032421432
  O    2.918279450   0.100473311  -0.470932726
  N    0.890295489   0.529688607   0.434075727
  H    0.011509633   0.134518953   0.718581906
  C    0.955920485   1.956370381   0.197968165
  H    0.691558934   2.211833807  -0.830471730
  H    0.268431083   2.461100994   0.871731717
  H    1.968173788   2.304654244   0.383056208
