24
charge=0 charge_a=0 charge_b=0 selection_a=1-12 selection_b=13-24 scaling=1.0 benchmark_Eint=-5.206 benchmark_unit=kcal/mol group=noHB
  C   -1.976256759   1.008109741  -0.898759276
  H   -2.022657206   1.892773290  -1.517517098
  C   -2.224051661   1.101113157   0.465757018
  H   -2.467164235   2.057073006   0.907382289
  C   -2.157497432  -0.036285359   1.263758996
  H   -2.350716751   0.035156672   2.324735868
  C   -1.846359844  -1.267099493   0.694377162
  H   -1.797925331  -2.151733357   1.313501145
  C   -1.598064213  -1.358474468  -0.670693118
  H   -1.350400076  -2.313323019  -1.111705367
  C   -1.661427900  -0.220819605  -1.466374051
  H   -1.461144094  -0.291042811  -2.525833931
  C    2.021101952  -1.754799660   0.277375857
  H    1.926585742  -2.242333045  -0.692133675
  H    1.125590707  -1.954988530   0.860816758
  H    2.886349255  -2.183245337   0.778041800
  C    2.274831290  -0.277674479   0.053328419
  O    3.310028305   0.126900903  -0.450025739
  N    1.282044344   0.556116199   0.454982714
  H    0.403258488   0.160946545   0.739488893
  C    1.347669340   1.982797973   0.218875152
  H    1.083307789   2.238261399  -0.809564743
  H    0.660179938   2.487528586   0.892638704
  H    2.359922643   2.331081836   0.403963195
