25
charge=0 charge_a=0 charge_b=0 selection_a=1-12 selection_b=13-25 scaling=1.25 benchmark_Eint=-2.061 benchmark_unit=kcal/mol group=noHB
  C   -0.815365682   0.000000000   0.558244104
  H    0.217397037   0.000000000   0.879070342
  C   -1.479207223  -1.202282647   0.340554197
  H   -0.964841442  -2.138513206   0.507692645
  C   -2.800623804  -1.203592964  -0.091446771
  H   -3.314446492  -2.139836672  -0.259533563
  C   -3.461841253   0.000000000  -0.307791008
  H   -4.489216495   0.000000000  -0.644129659
  C   -2.800623804   1.203592964  -0.091446771
  H   -3.314446492   2.139836672  -0.259533563
  C   -1.479207223   1.202282647   0.340554197
  H   -0.964841442   2.138513206   0.507692645
  H    3.781077233  -1.285771165  -1.562641949
  H    3.110081815  -2.081203210  -0.125567783
  H    2.041837786  -1.196685202  -1.218568228
  H    2.041837786   1.196685202  -1.218568228
  H    3.781077233   1.285771165  -1.562641949
  H    3.110081815   2.081203210  -0.125567783
  H    5.337350223  -0.000000000   0.052315672
  H    4.547236175   0.882705100   1.373136457
  C    3.029580770  -1.199321785  -0.760185231
  N    3.202877695  -0.000000000   0.039328088
  C    3.029580770   1.199321785  -0.760185231
  C    4.474075967  -0.000000000   0.739032828
  H    4.547236175  -0.882705100   1.373136457
