25
charge=0 charge_a=0 charge_b=0 selection_a=1-12 selection_b=13-25 scaling=1.05 benchmark_Eint=-5.269 benchmark_unit=kcal/mol group=noHB
  C   -2.588294561  -0.143981675   1.391298266
  H   -2.582319804  -0.143526837   2.471746023
  C   -2.572739036  -1.346363851   0.695438569
  H   -2.555465651  -2.282258376   1.235489768
  C   -2.572739036  -1.346363851  -0.695438569
  H   -2.555465651  -2.282258376  -1.235489768
  C   -2.588294561  -0.143981675  -1.391298266
  H   -2.582319804  -0.143526837  -2.471746023
  C   -2.610367441   1.060884069  -0.696073456
  H   -2.628704881   1.996661961  -1.236615697
  C   -2.610367441   1.060884069   0.696073456
  H   -2.628704881   1.996661961   1.236615697
  H    3.238270658   2.178128405   0.000000000
  H    4.349347028  -1.970266689   0.000000000
  H    4.987772314   0.423489716   0.000000000
  H    0.213611271  -0.839171747   0.000000000
  H   -0.183690731   1.410216229   0.000000000
  H    1.950576775  -2.589945940   0.000000000
  C    3.588371281  -1.203780047   0.000000000
  C    3.944242428   0.141062269   0.000000000
  C    2.972880336   1.131023967   0.000000000
  C    1.626455562   0.775855056   0.000000000
  C    1.259868982  -0.567718024   0.000000000
  C    2.242884055  -1.548991828   0.000000000
  O    0.706836072   1.781042489   0.000000000
