21
charge=0 charge_a=0 charge_b=0 selection_a=1-10 selection_b=11-21 scaling=0.95 benchmark_Eint=-4.456 benchmark_unit=kcal/mol group=noHB
  H   -1.897594621   0.846081697  -1.176706837
  H   -3.546198788   0.307382509  -0.818646532
  H   -2.819200661   1.639276078   0.100643200
  H   -2.627086273  -0.299510291   1.412920606
  H   -1.376641859  -2.210354777   0.822326550
  H   -1.076014494  -1.488471222  -0.760652326
  H   -2.703505052  -2.039357620  -0.344955621
  C   -2.612803907   0.679661132  -0.371854020
  N   -2.028302414  -0.233505582   0.601178325
  C   -1.795957078  -1.562386379   0.053509297
  H    1.192404109  -2.042520280  -0.276585227
  H    2.668804581  -1.983459355   0.723227856
  H    2.651423475  -1.265427414  -0.912023234
  H    0.287315115   2.631998470  -0.075981972
  C    0.954128629   0.615088833  -0.149636705
  O    1.683969900  -0.225719584   0.610118511
  C    2.070314015  -1.457504429  -0.012895407
  C    0.566762950   1.845112429   0.616924714
  O    0.651354014   0.375336319  -1.291349568
  H   -0.295393102   1.584685234   1.230137847
  H    1.372519769   2.173253521   1.268471194
