21
charge=0 charge_a=0 charge_b=0 selection_a=1-10 selection_b=11-21 scaling=1.5 benchmark_Eint=-1.556 benchmark_unit=kcal/mol group=noHB
  H   -1.897594621   0.846081697  -1.176706837
  H   -3.546198788   0.307382509  -0.818646532
  H   -2.819200661   1.639276078   0.100643200
  H   -2.627086273  -0.299510291   1.412920606
  H   -1.376641859  -2.210354777   0.822326550
  H   -1.076014494  -1.488471222  -0.760652326
  H   -2.703505052  -2.039357620  -0.344955621
  C   -2.612803907   0.679661132  -0.371854020
  N   -2.028302414  -0.233505582   0.601178325
  C   -1.795957078  -1.562386379   0.053509297
  H    2.543608294  -1.805024098  -0.329586430
  H    4.020008766  -1.745963173   0.670226653
  H    4.002627660  -1.027931232  -0.965024437
  H    1.638519300   2.869494652  -0.128983175
  C    2.305332814   0.852585015  -0.202637908
  O    3.035174085   0.011776598   0.557117308
  C    3.421518200  -1.220008247  -0.065896610
  C    1.917967135   2.082608611   0.563923511
  O    2.002558199   0.612832501  -1.344350771
  H    1.055811083   1.822181416   1.177136644
  H    2.723723954   2.410749703   1.215469991
