24
charge=0 charge_a=0 charge_b=0 selection_a=1-12 selection_b=13-24 scaling=1.5 benchmark_Eint=-1.967 benchmark_unit=kcal/mol group=noHB
  C   -1.976256759   1.008109741  -0.898759276
  H   -2.022657206   1.892773290  -1.517517098
  C   -2.224051661   1.101113157   0.465757018
  H   -2.467164235   2.057073006   0.907382289
  C   -2.157497432  -0.036285359   1.263758996
  H   -2.350716751   0.035156672   2.324735868
  C   -1.846359844  -1.267099493   0.694377162
  H   -1.797925331  -2.151733357   1.313501145
  C   -1.598064213  -1.358474468  -0.670693118
  H   -1.350400076  -2.313323019  -1.111705367
  C   -1.661427900  -0.220819605  -1.466374051
  H   -1.461144094  -0.291042811  -2.525833931
  C    3.326931468  -1.666707687   0.347065813
  H    3.232415258  -2.154241072  -0.622443719
  H    2.431420223  -1.866896557   0.930506714
  H    4.192178771  -2.095153364   0.847731756
  C    3.580660806  -0.189582506   0.123018375
  O    4.615857821   0.214992876  -0.380335783
  N    2.587873860   0.644208172   0.524672670
  H    1.709088004   0.249038518   0.809178849
  C    2.653498856   2.070889946   0.288565108
  H    2.389137305   2.326353372  -0.739874787
  H    1.966009454   2.575620559   0.962328660
  H    3.665752159   2.419173809   0.473653151
