25
charge=0 charge_a=0 charge_b=0 selection_a=1-12 selection_b=13-25 scaling=0.95 benchmark_Eint=-2.942 benchmark_unit=kcal/mol group=noHB
  C   -0.815365682   0.000000000   0.558244104
  H    0.217397037   0.000000000   0.879070342
  C   -1.479207223  -1.202282647   0.340554197
  H   -0.964841442  -2.138513206   0.507692645
  C   -2.800623804  -1.203592964  -0.091446771
  H   -3.314446492  -2.139836672  -0.259533563
  C   -3.461841253   0.000000000  -0.307791008
  H   -4.489216495   0.000000000  -0.644129659
  C   -2.800623804   1.203592964  -0.091446771
  H   -3.314446492   2.139836672  -0.259533563
  C   -1.479207223   1.202282647   0.340554197
  H   -0.964841442   2.138513206   0.507692645
  H    3.033681790  -1.285771165  -1.519129357
  H    2.362686372  -2.081203210  -0.082055191
  H    1.294442343  -1.196685202  -1.175055636
  H    1.294442343   1.196685202  -1.175055636
  H    3.033681790   1.285771165  -1.519129357
  H    2.362686372   2.081203210  -0.082055191
  H    4.589954780   0.000000000   0.095828264
  H    3.799840732   0.882705100   1.416649049
  C    2.282185327  -1.199321785  -0.716672639
  N    2.455482252   0.000000000   0.082840680
  C    2.282185327   1.199321785  -0.716672639
  C    3.726680524   0.000000000   0.782545420
  H    3.799840732  -0.882705100   1.416649049
