13
charge=0 charge_a=0 charge_b=0 selection_a=1-6 selection_b=7-13 scaling=1.1 benchmark_Eint=-1.751 benchmark_unit=kcal/mol group=noHB
  H    1.294018207   0.960871885  -0.637186517
  H    2.916429020   0.424116962  -1.340935199
  H    3.302207939  -0.976804619   0.648103092
  H    1.685569311  -0.428395564   1.338983622
  C    2.194953448   0.371451589  -0.536112520
  C    2.405240965  -0.382965144   0.532216837
  H   -2.239272309  -1.610418557  -1.077287101
  H   -1.841993991  -1.914036889   0.599911306
  H   -0.592000089  -1.244610037  -0.486451412
  H   -3.186658835   0.217398165   0.400524628
  C   -1.648815855  -1.238549497  -0.236672905
  C   -2.115601933   0.139833762   0.122255575
  O   -1.421552987   1.123213122   0.124155045
