19
charge=0 charge_a=0 charge_b=0 selection_a=1-10 selection_b=11-19 scaling=2.0 benchmark_Eint=-0.310 benchmark_unit=kcal/mol group=noHB
  H   -3.193922931   1.465777083  -0.231836198
  H   -1.695219677   1.246948354  -1.145875115
  H   -1.673862139   2.073185179   0.422590428
  H   -0.965695495  -0.114743828   0.815901736
  H   -2.184392873  -2.059295404   0.398458559
  H   -3.499557346  -1.093242530  -0.265219889
  H   -1.979288307  -1.236078089  -1.159906011
  C   -2.127677122   1.254691586  -0.133244966
  N   -1.941685517   0.007407252   0.586216750
  C   -2.415432509  -1.148820868  -0.152647949
  H    4.318097078  -1.817092239   1.309720392
  H    3.808582182  -1.989201376  -1.374515160
  H    4.448352342   0.870813585   1.804879991
  H    3.684875889   0.612679868  -2.209342111
  C    3.935244911  -1.095597696  -0.790735199
  C    4.199734441  -1.005630749   0.614494325
  C    4.271118300   0.317123256   0.902300641
  O    4.069482312   1.055522232  -0.223519473
  C    3.866621360   0.178649778  -1.244526821
