19
charge=0 charge_a=0 charge_b=0 selection_a=1-10 selection_b=11-19 scaling=0.8 benchmark_Eint=0.450 benchmark_unit=kcal/mol group=noHB
  H   -3.193922931   1.465777083  -0.231836198
  H   -1.695219677   1.246948354  -1.145875115
  H   -1.673862139   2.073185179   0.422590428
  H   -0.965695495  -0.114743828   0.815901736
  H   -2.184392873  -2.059295404   0.398458559
  H   -3.499557346  -1.093242530  -0.265219889
  H   -1.979288307  -1.236078089  -1.159906011
  C   -2.127677122   1.254691586  -0.133244966
  N   -1.941685517   0.007407252   0.586216750
  C   -2.415432509  -1.148820868  -0.152647949
  H    1.147371728  -1.762868210   1.427373214
  H    0.637856832  -1.934977347  -1.256862338
  H    1.277626992   0.925037614   1.922532813
  H    0.514150539   0.666903897  -2.091689289
  C    0.764519561  -1.041373667  -0.673082377
  C    1.029009091  -0.951406720   0.732147147
  C    1.100392950   0.371347285   1.019953463
  O    0.898756962   1.109746261  -0.105866651
  C    0.695896010   0.232873807  -1.126873999
