25
charge=0 charge_a=0 charge_b=0 selection_a=1-12 selection_b=13-25 scaling=0.8 benchmark_Eint=0.010 benchmark_unit=kcal/mol group=noHB
  C   -0.815365682   0.000000000   0.558244104
  H    0.217397037   0.000000000   0.879070342
  C   -1.479207223  -1.202282647   0.340554197
  H   -0.964841442  -2.138513206   0.507692645
  C   -2.800623804  -1.203592964  -0.091446771
  H   -3.314446492  -2.139836672  -0.259533563
  C   -3.461841253   0.000000000  -0.307791008
  H   -4.489216495   0.000000000  -0.644129659
  C   -2.800623804   1.203592964  -0.091446771
  H   -3.314446492   2.139836672  -0.259533563
  C   -1.479207223   1.202282647   0.340554197
  H   -0.964841442   2.138513206   0.507692645
  H    2.659984068  -1.285771165  -1.497373062
  H    1.988988650  -2.081203210  -0.060298896
  H    0.920744621  -1.196685202  -1.153299341
  H    0.920744621   1.196685202  -1.153299341
  H    2.659984068   1.285771165  -1.497373062
  H    1.988988650   2.081203210  -0.060298896
  H    4.216257058   0.000000000   0.117584559
  H    3.426143010   0.882705100   1.438405344
  C    1.908487605  -1.199321785  -0.694916344
  N    2.081784530   0.000000000   0.104596975
  C    1.908487605   1.199321785  -0.694916344
  C    3.352982802   0.000000000   0.804301715
  H    3.426143010  -0.882705100   1.438405344
