25
charge=0 charge_a=0 charge_b=0 selection_a=1-12 selection_b=13-25 scaling=0.9 benchmark_Eint=-4.508 benchmark_unit=kcal/mol group=noHB
  C   -2.588294561  -0.143981675   1.391298266
  H   -2.582319804  -0.143526837   2.471746023
  C   -2.572739036  -1.346363851   0.695438569
  H   -2.555465651  -2.282258376   1.235489768
  C   -2.572739036  -1.346363851  -0.695438569
  H   -2.555465651  -2.282258376  -1.235489768
  C   -2.588294561  -0.143981675  -1.391298266
  H   -2.582319804  -0.143526837  -2.471746023
  C   -2.610367441   1.060884069  -0.696073456
  H   -2.628704881   1.996661961  -1.236615697
  C   -2.610367441   1.060884069   0.696073456
  H   -2.628704881   1.996661961   1.236615697
  H    2.873981809   2.157997397  -0.000000000
  H    3.985058179  -1.990397697  -0.000000000
  H    4.623483465   0.403358708  -0.000000000
  H   -0.150677578  -0.859302755  -0.000000000
  H   -0.547979580   1.390085221  -0.000000000
  H    1.586287926  -2.610076948  -0.000000000
  C    3.224082432  -1.223911055  -0.000000000
  C    3.579953579   0.120931261  -0.000000000
  C    2.608591487   1.110892959  -0.000000000
  C    1.262166713   0.755724048  -0.000000000
  C    0.895580133  -0.587849032  -0.000000000
  C    1.878595206  -1.569122836  -0.000000000
  O    0.342547223   1.760911481  -0.000000000
