19
charge=0 charge_a=0 charge_b=0 selection_a=1-10 selection_b=11-19 scaling=0.95 benchmark_Eint=-3.333 benchmark_unit=kcal/mol group=noHB
  H   -3.193922931   1.465777083  -0.231836198
  H   -1.695219677   1.246948354  -1.145875115
  H   -1.673862139   2.073185179   0.422590428
  H   -0.965695495  -0.114743828   0.815901736
  H   -2.184392873  -2.059295404   0.398458559
  H   -3.499557346  -1.093242530  -0.265219889
  H   -1.979288307  -1.236078089  -1.159906011
  C   -2.127677122   1.254691586  -0.133244966
  N   -1.941685517   0.007407252   0.586216750
  C   -2.415432509  -1.148820868  -0.152647949
  H    1.543712397  -1.769646213   1.412666611
  H    1.034197501  -1.941755350  -1.271568941
  H    1.673967661   0.918259611   1.907826210
  H    0.910491208   0.660125894  -2.106395892
  C    1.160860230  -1.048151670  -0.687788980
  C    1.425349760  -0.958184723   0.717440544
  C    1.496733619   0.364569282   1.005246860
  O    1.295097631   1.102968258  -0.120573254
  C    1.092236679   0.226095804  -1.141580602
