24
charge=0 charge_a=0 charge_b=0 selection_a=1-12 selection_b=13-24 scaling=0.8 benchmark_Eint=-0.298 benchmark_unit=kcal/mol group=noHB
  C   -1.976256759   1.008109741  -0.898759276
  H   -2.022657206   1.892773290  -1.517517098
  C   -2.224051661   1.101113157   0.465757018
  H   -2.467164235   2.057073006   0.907382289
  C   -2.157497432  -0.036285359   1.263758996
  H   -2.350716751   0.035156672   2.324735868
  C   -1.846359844  -1.267099493   0.694377162
  H   -1.797925331  -2.151733357   1.313501145
  C   -1.598064213  -1.358474468  -0.670693118
  H   -1.350400076  -2.313323019  -1.111705367
  C   -1.661427900  -0.220819605  -1.466374051
  H   -1.461144094  -0.291042811  -2.525833931
  C    1.498770145  -1.790036449   0.249499875
  H    1.404253935  -2.277569834  -0.720009657
  H    0.603258900  -1.990225319   0.832940776
  H    2.364017448  -2.218482126   0.750165818
  C    1.752499483  -0.312911268   0.025452437
  O    2.787696498   0.091664114  -0.477901721
  N    0.759712537   0.520879410   0.427106732
  H   -0.119073319   0.125709756   0.711612911
  C    0.825337533   1.947561184   0.190999170
  H    0.560975982   2.203024610  -0.837440725
  H    0.137848131   2.452291797   0.864762722
  H    1.837590836   2.295845047   0.376087213
