19
charge=0 charge_a=0 charge_b=0 selection_a=1-10 selection_b=11-19 scaling=1.0 benchmark_Eint=-3.409 benchmark_unit=kcal/mol group=noHB
  H   -3.193922931   1.465777083  -0.231836198
  H   -1.695219677   1.246948354  -1.145875115
  H   -1.673862139   2.073185179   0.422590428
  H   -0.965695495  -0.114743828   0.815901736
  H   -2.184392873  -2.059295404   0.398458559
  H   -3.499557346  -1.093242530  -0.265219889
  H   -1.979288307  -1.236078089  -1.159906011
  C   -2.127677122   1.254691586  -0.133244966
  N   -1.941685517   0.007407252   0.586216750
  C   -2.415432509  -1.148820868  -0.152647949
  H    1.675825953  -1.771905548   1.407764410
  H    1.166311057  -1.944014685  -1.276471142
  H    1.806081217   0.916000276   1.902924009
  H    1.042604764   0.657866559  -2.111298093
  C    1.292973786  -1.050411005  -0.692691181
  C    1.557463316  -0.960444058   0.712538343
  C    1.628847175   0.362309947   1.000344659
  O    1.427211187   1.100708923  -0.125475455
  C    1.224350235   0.223836469  -1.146482803
