19
charge=0 charge_a=0 charge_b=0 selection_a=1-10 selection_b=11-19 scaling=1.25 benchmark_Eint=-2.112 benchmark_unit=kcal/mol group=noHB
  H   -3.193922931   1.465777083  -0.231836198
  H   -1.695219677   1.246948354  -1.145875115
  H   -1.673862139   2.073185179   0.422590428
  H   -0.965695495  -0.114743828   0.815901736
  H   -2.184392873  -2.059295404   0.398458559
  H   -3.499557346  -1.093242530  -0.265219889
  H   -1.979288307  -1.236078089  -1.159906011
  C   -2.127677122   1.254691586  -0.133244966
  N   -1.941685517   0.007407252   0.586216750
  C   -2.415432509  -1.148820868  -0.152647949
  H    2.336393734  -1.783202221   1.383253405
  H    1.826878838  -1.955311358  -1.300982147
  H    2.466648998   0.904703603   1.878413004
  H    1.703172545   0.646569886  -2.135809098
  C    1.953541567  -1.061707678  -0.717202186
  C    2.218031097  -0.971740731   0.688027338
  C    2.289414956   0.351013274   0.975833654
  O    2.087778968   1.089412250  -0.149986460
  C    1.884918016   0.212539796  -1.170993808
