19
charge=0 charge_a=0 charge_b=0 selection_a=1-10 selection_b=11-19 scaling=0.9 benchmark_Eint=-2.865 benchmark_unit=kcal/mol group=noHB
  H   -3.193922931   1.465777083  -0.231836198
  H   -1.695219677   1.246948354  -1.145875115
  H   -1.673862139   2.073185179   0.422590428
  H   -0.965695495  -0.114743828   0.815901736
  H   -2.184392873  -2.059295404   0.398458559
  H   -3.499557346  -1.093242530  -0.265219889
  H   -1.979288307  -1.236078089  -1.159906011
  C   -2.127677122   1.254691586  -0.133244966
  N   -1.941685517   0.007407252   0.586216750
  C   -2.415432509  -1.148820868  -0.152647949
  H    1.411598841  -1.767386879   1.417568812
  H    0.902083945  -1.939496016  -1.266666740
  H    1.541854105   0.920518945   1.912728411
  H    0.778377652   0.662385228  -2.101493691
  C    1.028746674  -1.045892336  -0.682886779
  C    1.293236204  -0.955925389   0.722342745
  C    1.364620063   0.366828616   1.010149061
  O    1.162984075   1.105227592  -0.115671053
  C    0.960123123   0.228355138  -1.136678401
