13
charge=0 charge_a=0 charge_b=0 selection_a=1-6 selection_b=7-13 scaling=0.9 benchmark_Eint=-1.499 benchmark_unit=kcal/mol group=noHB
  H    1.294018207   0.960871885  -0.637186517
  H    2.916429020   0.424116962  -1.340935199
  H    3.302207939  -0.976804619   0.648103092
  H    1.685569311  -0.428395564   1.338983622
  C    2.194953448   0.371451589  -0.536112520
  C    2.405240965  -0.382965144   0.532216837
  H   -1.723669711  -1.611686393  -1.077588791
  H   -1.326391393  -1.915304725   0.599609616
  H   -0.076397491  -1.245877873  -0.486753102
  H   -2.671056237   0.216130329   0.400222938
  C   -1.133213257  -1.239817333  -0.236974595
  C   -1.599999335   0.138565926   0.121953885
  O   -0.905950389   1.121945286   0.123853355
