13
charge=0 charge_a=0 charge_b=0 selection_a=1-6 selection_b=7-13 scaling=0.8 benchmark_Eint=0.367 benchmark_unit=kcal/mol group=noHB
  H    1.294018207   0.960871885  -0.637186517
  H    2.916429020   0.424116962  -1.340935199
  H    3.302207939  -0.976804619   0.648103092
  H    1.685569311  -0.428395564   1.338983622
  C    2.194953448   0.371451589  -0.536112520
  C    2.405240965  -0.382965144   0.532216837
  H   -1.465868413  -1.612320310  -1.077739636
  H   -1.068590095  -1.915938642   0.599458771
  H    0.181403807  -1.246511790  -0.486903947
  H   -2.413254939   0.215496412   0.400072093
  C   -0.875411959  -1.240451250  -0.237125440
  C   -1.342198037   0.137932009   0.121803040
  O   -0.648149091   1.121311369   0.123702510
