13
charge=0 charge_a=0 charge_b=0 selection_a=1-6 selection_b=7-13 scaling=1.0 benchmark_Eint=-1.901 benchmark_unit=kcal/mol group=noHB
  H    1.294018207   0.960871885  -0.637186517
  H    2.916429020   0.424116962  -1.340935199
  H    3.302207939  -0.976804619   0.648103092
  H    1.685569311  -0.428395564   1.338983622
  C    2.194953448   0.371451589  -0.536112520
  C    2.405240965  -0.382965144   0.532216837
  H   -1.981471010  -1.611052475  -1.077437946
  H   -1.584192692  -1.914670807   0.599760461
  H   -0.334198790  -1.245243955  -0.486602257
  H   -2.928857536   0.216764247   0.400373783
  C   -1.391014556  -1.239183415  -0.236823750
  C   -1.857800634   0.139199844   0.122104730
  O   -1.163751688   1.122579204   0.124004200
