23
charge=0 charge_a=0 charge_b=0 selection_a=1-12 selection_b=13-23 scaling=1.25 benchmark_Eint=-1.894 benchmark_unit=kcal/mol group=noHB
  C   -1.995972080  -1.365990694  -0.013379179
  H   -2.079955993  -2.420623281  -0.235185324
  C   -2.597860604  -0.430587591  -0.846031826
  H   -3.154821259  -0.757109774  -1.713177748
  C   -2.484061724   0.925997264  -0.563115053
  H   -2.952253390   1.654457028  -1.210348877
  C   -1.770103403   1.344374350   0.553083960
  H   -1.679099678   2.399068534   0.772090509
  C   -1.167287896   0.408164813   1.384519116
  H   -0.600408285   0.734033277   2.244550900
  C   -1.278478194  -0.946555961   1.100858993
  H   -0.793615791  -1.672604138   1.736956621
  H    3.367035843   2.157682077   0.619616206
  H    3.993329304  -0.009148404   1.650201126
  C    2.312248642   1.215821113  -1.008036931
  C    3.061774882   1.228958113   0.159664898
  C    3.410690289   0.015082104   0.737059472
  N    3.065063654  -1.167329759   0.227882321
  C    2.346439778  -1.165265821  -0.893897038
  C    1.947405693  -0.006978998  -1.548008225
  H    2.068392137  -2.135793315  -1.285781610
  H    1.349397293  -0.067842811  -2.444691377
  H    2.010198791   2.139251639  -1.481008271
