23
charge=0 charge_a=0 charge_b=0 selection_a=1-12 selection_b=13-23 scaling=1.0 benchmark_Eint=-3.396 benchmark_unit=kcal/mol group=noHB
  C   -1.995972080  -1.365990694  -0.013379179
  H   -2.079955993  -2.420623281  -0.235185324
  C   -2.597860604  -0.430587591  -0.846031826
  H   -3.154821259  -0.757109774  -1.713177748
  C   -2.484061724   0.925997264  -0.563115053
  H   -2.952253390   1.654457028  -1.210348877
  C   -1.770103403   1.344374350   0.553083960
  H   -1.679099678   2.399068534   0.772090509
  C   -1.167287896   0.408164813   1.384519116
  H   -0.600408285   0.734033277   2.244550900
  C   -1.278478194  -0.946555961   1.100858993
  H   -0.793615791  -1.672604138   1.736956621
  H    2.533804813   2.152925478   0.738743901
  H    3.160098274  -0.013905003   1.769328821
  C    1.479017612   1.211064514  -0.888909236
  C    2.228543852   1.224201514   0.278792593
  C    2.577459259   0.010325505   0.856187167
  N    2.231832624  -1.172086358   0.347010016
  C    1.513208748  -1.170022420  -0.774769343
  C    1.114174663  -0.011735597  -1.428880530
  H    1.235161107  -2.140549914  -1.166653915
  H    0.516166263  -0.072599410  -2.325563682
  H    1.176967761   2.134495040  -1.361880576
