18
charge=0 charge_a=0 charge_b=0 selection_a=1-6 selection_b=7-18 scaling=0.85 benchmark_Eint=-1.457 benchmark_unit=kcal/mol group=noHB
  H    2.270189633  -0.880294624  -0.807075979
  H    3.341584745  -0.928160478   0.694925798
  H    2.900838307   1.462555374   1.075557726
  H    1.836109716   1.500840473  -0.428779678
  C    2.704658185  -0.356195850   0.032946101
  C    2.467921954   0.930787456   0.238523444
  H   -1.782324626   1.548762243   1.131653740
  H   -0.050951686   1.793007591   1.454181311
  H   -0.942943263   2.963499632   0.449259181
  H   -0.862684384  -2.572526279   0.102430740
  H   -0.496756754  -2.302428904   1.830934530
  H    0.802532583  -2.225881371   0.609806122
  O   -0.517811607   1.240007428  -0.499926182
  C   -0.303587285  -0.078477682  -0.491302309
  O    0.025087477  -0.681969000  -1.473881821
  O   -0.506464472  -0.618353680   0.721038966
  C   -0.246692572  -2.026728359   0.812248218
  C   -0.845264188   1.918142412   0.722311424
