18
charge=0 charge_a=0 charge_b=0 selection_a=1-6 selection_b=7-18 scaling=1.05 benchmark_Eint=-2.937 benchmark_unit=kcal/mol group=noHB
  H    2.270189633  -0.880294624  -0.807075979
  H    3.341584745  -0.928160478   0.694925798
  H    2.900838307   1.462555374   1.075557726
  H    1.836109716   1.500840473  -0.428779678
  C    2.704658185  -0.356195850   0.032946101
  C    2.467921954   0.930787456   0.238523444
  H   -2.321853355   1.488788972   1.103401657
  H   -0.590480415   1.733034320   1.425929228
  H   -1.482471992   2.903526361   0.421007098
  H   -1.402213113  -2.632499550   0.074178657
  H   -1.036285483  -2.362402175   1.802682447
  H    0.263003854  -2.285854642   0.581554039
  O   -1.057340336   1.180034157  -0.528178265
  C   -0.843116014  -0.138450953  -0.519554392
  O   -0.514441252  -0.741942271  -1.502133904
  O   -1.045993201  -0.678326951   0.692786883
  C   -0.786221301  -2.086701630   0.783996135
  C   -1.384792917   1.858169141   0.694059341
