20
charge=0 charge_a=0 charge_b=0 selection_a=1-6 selection_b=7-20 scaling=1.25 benchmark_Eint=-1.980 benchmark_unit=kcal/mol group=noHB
  H   -4.084628485   0.299015070  -0.000000000
  H   -2.490190963  -0.627430699  -0.000000000
  H   -1.257432297   1.499875290  -0.000000000
  H   -2.851359991   2.423656511  -0.000000000
  C   -3.002520662   0.325103344  -0.000000000
  C   -2.337826994   1.470854519  -0.000000000
  H    1.065496816  -1.152852261   2.140549094
  H    2.859164303   2.095866530   0.000000000
  H    2.255146288   0.996581526   2.138712163
  H    1.065496816  -1.152852261  -2.140549094
  H    0.343009729  -3.056128531   0.834829785
  H    2.255146288   0.996581526  -2.138712163
  H    0.343009729  -3.056128531  -0.834829785
  C    2.341683756   1.148098966   0.000000000
  C    2.002920539   0.528564431   1.197501208
  C    1.336262962  -0.686932666   1.202355194
  C    0.994839002  -1.312117891   0.000000000
  C    1.336262962  -0.686932666  -1.202355194
  C    2.002920539   0.528564431  -1.197501208
  N    0.264424878  -2.500015856   0.000000000
