16
charge=0 charge_a=0 charge_b=0 selection_a=1-6 selection_b=7-16 scaling=1.05 benchmark_Eint=-2.594 benchmark_unit=kcal/mol group=noHB
  H   -1.369956377  -0.040792988  -1.228059670
  H   -3.212593896  -0.040320496  -1.229570058
  H   -3.212593896   0.040320496   1.229570058
  H   -1.369956377   0.040792988   1.228059670
  C   -2.291935670  -0.021602227  -0.661729397
  C   -2.291935670   0.021602227   0.661729397
  H    2.083427654   2.329721538   0.324006854
  H    1.269052492   1.808089594  -1.187776687
  H    0.326849189   2.282113904   0.259613943
  H    0.326849189  -2.282113904  -0.259613943
  H    1.269052492  -1.808089594   1.187776687
  H    2.083427654  -2.329721538  -0.324006854
  C    1.233575888   1.793843488  -0.098180102
  N    1.245949600   0.435375521   0.434524315
  N    1.245949600  -0.435375521  -0.434524315
  C    1.233575888  -1.793843488   0.098180102
