16
charge=0 charge_a=0 charge_b=0 selection_a=1-6 selection_b=7-16 scaling=0.85 benchmark_Eint=-1.112 benchmark_unit=kcal/mol group=noHB
  H    1.035275086   0.000000000   0.938798971
  H    2.795714630   0.000000000   1.494071783
  H    3.545688909   0.000000000  -0.845065539
  H    1.795970557   0.000000000  -1.408660989
  C    2.086029542   0.000000000   0.676729768
  C    2.495827608   0.000000000  -0.583198709
  H   -0.089370481  -1.287497063  -0.811982731
  H   -1.846159827  -1.258970303  -1.015364319
  H   -1.112450333  -2.084637890   0.375512838
  H   -1.840167759   0.000000000   1.147310362
  H   -1.112450333   2.084637890   0.375512838
  H   -0.089370481   1.287497063  -0.811982731
  H   -1.846159827   1.258970303  -1.015364319
  C   -1.034961829  -1.214141101  -0.273773942
  N   -1.042710287   0.000000000   0.527163302
  C   -1.034961829   1.214141101  -0.273773942
