16
charge=0 charge_a=0 charge_b=0 selection_a=1-6 selection_b=7-16 scaling=0.95 benchmark_Eint=-2.675 benchmark_unit=kcal/mol group=noHB
  H    1.698527829   1.223267441  -0.626344380
  H    2.934049025   1.231773576   0.742904465
  H    2.934049025  -1.231773576   0.742904465
  H    1.698527829  -1.223267441  -0.626344380
  C    2.315317383   0.662201732   0.062127049
  C    2.315317383  -0.662201732   0.062127049
  H   -2.056560906   1.311048281   1.175337576
  H   -1.006835852   2.139918081  -0.001754576
  H   -0.318838247   1.326929111   1.423684265
  H   -1.006835852  -2.139918081  -0.001754576
  H   -2.056560906  -1.311048281   1.175337576
  C   -1.095851853   1.283068800   0.659057863
  C   -0.957377542  -0.000000000  -0.126766381
  O   -0.736344513  -0.000000000  -1.315369809
  C   -1.095851853  -1.283068800   0.659057863
  H   -0.318838247  -1.326929111   1.423684265
