16
charge=0 charge_a=0 charge_b=0 selection_a=1-6 selection_b=7-16 scaling=0.9 benchmark_Eint=-2.257 benchmark_unit=kcal/mol group=noHB
  H   -1.447124334   0.442772704  -1.140328101
  H   -3.292365743   0.446163053  -1.147324220
  H   -3.292365743  -0.446163053   1.147324220
  H   -1.447124334  -0.442772704   1.140328101
  C   -2.371770336   0.239941683  -0.617421444
  C   -2.371770336  -0.239941683   0.617421444
  H    1.650722716   1.820765050   0.906416630
  H    0.805502292   2.524361599  -0.497330268
  H   -0.137277538   1.796457738   0.829038982
  H    0.805502292  -2.524361599   0.497330268
  H    1.650722716  -1.820765050  -0.906416630
  H   -0.137277538  -1.796457738  -0.829038982
  C    0.784312999   1.731555282   0.248590591
  O    0.834825208   0.535315423  -0.497974013
  O    0.834825208  -0.535315423   0.497974013
  C    0.784312999  -1.731555282  -0.248590591
