15
charge=0 charge_a=0 charge_b=0 selection_a=1-6 selection_b=7-15 scaling=0.95 benchmark_Eint=-1.939 benchmark_unit=kcal/mol group=noHB
  H    1.073849117  -0.000001496  -0.969331769
  H    2.853979759  -0.000000454  -1.452840587
  H    3.502887572   0.000001043   0.918487363
  H    1.729872596  -0.000000039   1.404747976
  C    2.111911541  -0.000000659  -0.665239994
  C    2.465539518   0.000000600   0.611293472
  H   -1.229497441  -2.020436714  -0.419261291
  H   -2.244712275  -1.225362836   0.805686382
  H   -0.473773492  -1.231409336   0.980954911
  H   -1.229497232   2.020436512  -0.419262643
  H   -2.244712289   1.225363581   0.805685463
  H   -0.473773527   1.231410021   0.980954191
  C   -1.296164407  -1.173953693   0.259395670
  O   -1.216478535  -0.000000153  -0.519125017
  C   -1.296164364   1.173953921   0.259394869
