16
charge=0 charge_a=0 charge_b=0 selection_a=1-6 selection_b=7-16 scaling=1.05 benchmark_Eint=-2.608 benchmark_unit=kcal/mol group=noHB
  H    1.698527829   1.223267441  -0.626344380
  H    2.934049025   1.231773576   0.742904465
  H    2.934049025  -1.231773576   0.742904465
  H    1.698527829  -1.223267441  -0.626344380
  C    2.315317383   0.662201732   0.062127049
  C    2.315317383  -0.662201732   0.062127049
  H   -2.350434526   1.311048281   1.167522694
  H   -1.300709472   2.139918081  -0.009569458
  H   -0.612711867   1.326929111   1.415869383
  H   -1.300709472  -2.139918081  -0.009569458
  H   -2.350434526  -1.311048281   1.167522694
  C   -1.389725473   1.283068800   0.651242981
  C   -1.251251162   0.000000000  -0.134581263
  O   -1.030218133   0.000000000  -1.323184691
  C   -1.389725473  -1.283068800   0.651242981
  H   -0.612711867  -1.326929111   1.415869383
