20
charge=0 charge_a=0 charge_b=0 selection_a=1-6 selection_b=7-20 scaling=2.0 benchmark_Eint=-0.272 benchmark_unit=kcal/mol group=noHB
  H   -4.084628485   0.299015070  -0.000000000
  H   -2.490190963  -0.627430699  -0.000000000
  H   -1.257432297   1.499875290  -0.000000000
  H   -2.851359991   2.423656511  -0.000000000
  C   -3.002520662   0.325103344  -0.000000000
  C   -2.337826994   1.470854519  -0.000000000
  H    2.977320567  -1.795855310   2.140549094
  H    4.770988054   1.452863481   0.000000000
  H    4.166970039   0.353578477   2.138712163
  H    2.977320567  -1.795855310  -2.140549094
  H    2.254833480  -3.699131580   0.834829785
  H    4.166970039   0.353578477  -2.138712163
  H    2.254833480  -3.699131580  -0.834829785
  C    4.253507507   0.505095917   0.000000000
  C    3.914744290  -0.114438618   1.197501208
  C    3.248086713  -1.329935715   1.202355194
  C    2.906662753  -1.955120940   0.000000000
  C    3.248086713  -1.329935715  -1.202355194
  C    3.914744290  -0.114438618  -1.197501208
  N    2.176248629  -3.143018905   0.000000000
