16
charge=0 charge_a=0 charge_b=0 selection_a=1-6 selection_b=7-16 scaling=1.1 benchmark_Eint=-2.381 benchmark_unit=kcal/mol group=noHB
  H    1.698527829   1.223267441  -0.626344380
  H    2.934049025   1.231773576   0.742904465
  H    2.934049025  -1.231773576   0.742904465
  H    1.698527829  -1.223267441  -0.626344380
  C    2.315317383   0.662201732   0.062127049
  C    2.315317383  -0.662201732   0.062127049
  H   -2.497371336   1.311048281   1.163615253
  H   -1.447646282   2.139918081  -0.013476899
  H   -0.759648677   1.326929111   1.411961942
  H   -1.447646282  -2.139918081  -0.013476899
  H   -2.497371336  -1.311048281   1.163615253
  C   -1.536662283   1.283068800   0.647335540
  C   -1.398187972   0.000000000  -0.138488704
  O   -1.177154943   0.000000000  -1.327092132
  C   -1.536662283  -1.283068800   0.647335540
  H   -0.759648677  -1.326929111   1.411961942
