14
charge=0 charge_a=0 charge_b=0 selection_a=1-6 selection_b=7-14 scaling=0.9 benchmark_Eint=-1.836 benchmark_unit=kcal/mol group=noHB
  H   -1.596134586   1.199841276  -0.469964958
  H   -3.235091616   1.216976252   0.369137927
  H   -3.249105111  -1.240606485   0.406596069
  H   -1.612085646  -1.266013701  -0.432329041
  C   -2.417340845   0.640697571  -0.042861476
  C   -2.426117712  -0.683914829  -0.021498909
  H    0.956538445  -0.928946066  -1.592229009
  H    0.971334442   0.940607563   1.925498509
  H    1.551931638  -0.746385141   1.814325620
  H   -0.173532907  -0.400435842   1.744204884
  O    0.822636578   1.138893244  -0.643735395
  C    0.865420044   0.108263871  -0.025673414
  O    0.944888636  -1.098062326  -0.639979184
  C    0.812573285  -0.028722530   1.466231852
