18
charge=0 charge_a=0 charge_b=0 selection_a=1-6 selection_b=7-18 scaling=0.8 benchmark_Eint=0.717 benchmark_unit=kcal/mol group=noHB
  H    2.270189633  -0.880294624  -0.807075979
  H    3.341584745  -0.928160478   0.694925798
  H    2.900838307   1.462555374   1.075557726
  H    1.836109716   1.500840473  -0.428779678
  C    2.704658185  -0.356195850   0.032946101
  C    2.467921954   0.930787456   0.238523444
  H   -1.647442444   1.563755560   1.138716760
  H    0.083930496   1.808000908   1.461244331
  H   -0.808061081   2.978492949   0.456322201
  H   -0.727802202  -2.557532962   0.109493760
  H   -0.361874572  -2.287435587   1.837997550
  H    0.937414765  -2.210888054   0.616869142
  O   -0.382929425   1.255000745  -0.492863162
  C   -0.168705103  -0.063484365  -0.484239289
  O    0.159969659  -0.666975683  -1.466818801
  O   -0.371582290  -0.603360363   0.728101986
  C   -0.111810390  -2.011735042   0.819311238
  C   -0.710382006   1.933135729   0.729374444
