20
charge=0 charge_a=0 charge_b=0 selection_a=1-6 selection_b=7-20 scaling=1.05 benchmark_Eint=-3.043 benchmark_unit=kcal/mol group=noHB
  H   -4.084628485   0.299015070  -0.000000000
  H   -2.490190963  -0.627430699  -0.000000000
  H   -1.257432297   1.499875290  -0.000000000
  H   -2.851359991   2.423656511  -0.000000000
  C   -3.002520662   0.325103344  -0.000000000
  C   -2.337826994   1.470854519  -0.000000000
  H    0.555677149  -0.981384781   2.140549094
  H    2.349344636   2.267334010   0.000000000
  H    1.745326621   1.168049006   2.138712163
  H    0.555677149  -0.981384781  -2.140549094
  H   -0.166809938  -2.884661051   0.834829785
  H    1.745326621   1.168049006  -2.138712163
  H   -0.166809938  -2.884661051  -0.834829785
  C    1.831864089   1.319566446   0.000000000
  C    1.493100872   0.700031911   1.197501208
  C    0.826443295  -0.515465186   1.202355194
  C    0.485019335  -1.140650411   0.000000000
  C    0.826443295  -0.515465186  -1.202355194
  C    1.493100872   0.700031911  -1.197501208
  N   -0.245394789  -2.328548376   0.000000000
