12
charge=0 charge_a=0 charge_b=0 selection_a=1-6 selection_b=7-12 scaling=0.8 benchmark_Eint=1.336 benchmark_unit=kcal/mol group=noHB
  H    1.358096013  -0.597745525  -1.224027174
  H    2.795201164   0.558221776  -1.231654198
  H    2.795201164   0.558221776   1.231654198
  H    1.358096013  -0.597745525   1.224027174
  C    2.075185666  -0.014555720  -0.662325678
  C    2.075185666  -0.014555720   0.662325678
  H   -1.319480871   1.668407541   0.885146583
  H    0.217336323   1.649658126   0.000000000
  H   -1.319480871   1.668407541  -0.885146583
  C   -0.810412966   1.291293405   0.000000000
  C   -0.813610134  -0.161670917   0.000000000
  N   -0.800776005  -1.310017950   0.000000000
