20
charge=0 charge_a=0 charge_b=0 selection_a=1-6 selection_b=7-20 scaling=1.5 benchmark_Eint=-0.978 benchmark_unit=kcal/mol group=noHB
  H   -4.084628485   0.299015070  -0.000000000
  H   -2.490190963  -0.627430699  -0.000000000
  H   -1.257432297   1.499875290  -0.000000000
  H   -2.851359991   2.423656511  -0.000000000
  C   -3.002520662   0.325103344  -0.000000000
  C   -2.337826994   1.470854519  -0.000000000
  H    1.702771399  -1.367186611   2.140549094
  H    3.496438886   1.881532180   0.000000000
  H    2.892420871   0.782247176   2.138712163
  H    1.702771399  -1.367186611  -2.140549094
  H    0.980284312  -3.270462881   0.834829785
  H    2.892420871   0.782247176  -2.138712163
  H    0.980284312  -3.270462881  -0.834829785
  C    2.978958339   0.933764616   0.000000000
  C    2.640195122   0.314230081   1.197501208
  C    1.973537545  -0.901267016   1.202355194
  C    1.632113585  -1.526452241   0.000000000
  C    1.973537545  -0.901267016  -1.202355194
  C    2.640195122   0.314230081  -1.197501208
  N    0.901699461  -2.714350206   0.000000000
