16
charge=0 charge_a=0 charge_b=0 selection_a=1-6 selection_b=7-16 scaling=1.25 benchmark_Eint=-1.666 benchmark_unit=kcal/mol group=noHB
  H   -1.369956377  -0.040792988  -1.228059670
  H   -3.212593896  -0.040320496  -1.229570058
  H   -3.212593896   0.040320496   1.229570058
  H   -1.369956377   0.040792988   1.228059670
  C   -2.291935670  -0.021602227  -0.661729397
  C   -2.291935670   0.021602227   0.661729397
  H    2.610905833   2.329721538   0.324006854
  H    1.796530671   1.808089594  -1.187776687
  H    0.854327368   2.282113904   0.259613943
  H    0.854327368  -2.282113904  -0.259613943
  H    1.796530671  -1.808089594   1.187776687
  H    2.610905833  -2.329721538  -0.324006854
  C    1.761054067   1.793843488  -0.098180102
  N    1.773427779   0.435375521   0.434524315
  N    1.773427779  -0.435375521  -0.434524315
  C    1.761054067  -1.793843488   0.098180102
