16
charge=0 charge_a=0 charge_b=0 selection_a=1-6 selection_b=7-16 scaling=1.05 benchmark_Eint=-2.630 benchmark_unit=kcal/mol group=noHB
  H   -1.447124334   0.442772704  -1.140328101
  H   -3.292365743   0.446163053  -1.147324220
  H   -3.292365743  -0.446163053   1.147324220
  H   -1.447124334  -0.442772704   1.140328101
  C   -2.371770336   0.239941683  -0.617421444
  C   -2.371770336  -0.239941683   0.617421444
  H    2.044623959   1.820765050   0.906416630
  H    1.199403535   2.524361599  -0.497330268
  H    0.256623705   1.796457738   0.829038982
  H    1.199403535  -2.524361599   0.497330268
  H    2.044623959  -1.820765050  -0.906416630
  H    0.256623705  -1.796457738  -0.829038982
  C    1.178214242   1.731555282   0.248590591
  O    1.228726451   0.535315423  -0.497974013
  O    1.228726451  -0.535315423   0.497974013
  C    1.178214242  -1.731555282  -0.248590591
