15
charge=0 charge_a=0 charge_b=0 selection_a=1-6 selection_b=7-15 scaling=1.5 benchmark_Eint=-0.631 benchmark_unit=kcal/mol group=noHB
  H    1.073849117  -0.000001496  -0.969331769
  H    2.853979759  -0.000000454  -1.452840587
  H    3.502887572   0.000001043   0.918487363
  H    1.729872596  -0.000000039   1.404747976
  C    2.111911541  -0.000000659  -0.665239994
  C    2.465539518   0.000000600   0.611293472
  H   -2.579638673  -2.020436679  -0.403540733
  H   -3.594853507  -1.225362801   0.821406940
  H   -1.823914724  -1.231409301   0.996675469
  H   -2.579638464   2.020436547  -0.403542085
  H   -3.594853521   1.225363616   0.821406021
  H   -1.823914759   1.231410056   0.996674749
  C   -2.646305639  -1.173953658   0.275116228
  O   -2.566619767  -0.000000118  -0.503404459
  C   -2.646305596   1.173953956   0.275115427
