18
charge=0 charge_a=0 charge_b=0 selection_a=1-6 selection_b=7-18 scaling=2.0 benchmark_Eint=-0.262 benchmark_unit=kcal/mol group=noHB
  H    2.270189633  -0.880294624  -0.807075979
  H    3.341584745  -0.928160478   0.694925798
  H    2.900838307   1.462555374   1.075557726
  H    1.836109716   1.500840473  -0.428779678
  C    2.704658185  -0.356195850   0.032946101
  C    2.467921954   0.930787456   0.238523444
  H   -4.884614817   1.203915938   0.969204267
  H   -3.153241877   1.448161286   1.291731838
  H   -4.045233454   2.618653327   0.286809708
  H   -3.964974575  -2.917372584  -0.060018733
  H   -3.599046945  -2.647275209   1.668485057
  H   -2.299757608  -2.570727676   0.447356649
  O   -3.620101798   0.895161123  -0.662375655
  C   -3.405877476  -0.423323987  -0.653751782
  O   -3.077202714  -1.026815305  -1.636331294
  O   -3.608754663  -0.963199985   0.558589493
  C   -3.348982763  -2.371574664   0.649798745
  C   -3.947554379   1.573296107   0.559861951
