20
charge=0 charge_a=0 charge_b=0 selection_a=1-6 selection_b=7-20 scaling=0.85 benchmark_Eint=-1.445 benchmark_unit=kcal/mol group=noHB
  H   -4.084628485   0.299015070  -0.000000000
  H   -2.490190963  -0.627430699  -0.000000000
  H   -1.257432297   1.499875290  -0.000000000
  H   -2.851359991   2.423656511  -0.000000000
  C   -3.002520662   0.325103344  -0.000000000
  C   -2.337826994   1.470854519  -0.000000000
  H    0.045857482  -0.809917301   2.140549094
  H    1.839524969   2.438801490   0.000000000
  H    1.235506954   1.339516486   2.138712163
  H    0.045857482  -0.809917301  -2.140549094
  H   -0.676629605  -2.713193571   0.834829785
  H    1.235506954   1.339516486  -2.138712163
  H   -0.676629605  -2.713193571  -0.834829785
  C    1.322044422   1.491033926   0.000000000
  C    0.983281205   0.871499391   1.197501208
  C    0.316623628  -0.343997706   1.202355194
  C   -0.024800332  -0.969182931   0.000000000
  C    0.316623628  -0.343997706  -1.202355194
  C    0.983281205   0.871499391  -1.197501208
  N   -0.755214456  -2.157080896  -0.000000000
