16
charge=0 charge_a=0 charge_b=0 selection_a=1-6 selection_b=7-16 scaling=1.0 benchmark_Eint=-2.407 benchmark_unit=kcal/mol group=noHB
  H    1.035275086   0.000000000   0.938798971
  H    2.795714630   0.000000000   1.494071783
  H    3.545688909   0.000000000  -0.845065539
  H    1.795970557   0.000000000  -1.408660989
  C    2.086029542   0.000000000   0.676729768
  C    2.495827608   0.000000000  -0.583198709
  H   -0.462264417  -1.287497063  -0.819547380
  H   -2.219053763  -1.258970303  -1.022928968
  H   -1.485344269  -2.084637890   0.367948189
  H   -2.213061695   0.000000000   1.139745713
  H   -1.485344269   2.084637890   0.367948189
  H   -0.462264417   1.287497063  -0.819547380
  H   -2.219053763   1.258970303  -1.022928968
  C   -1.407855765  -1.214141101  -0.281338591
  N   -1.415604223   0.000000000   0.519598653
  C   -1.407855765   1.214141101  -0.281338591
