12
charge=0 charge_a=0 charge_b=0 selection_a=1-6 selection_b=7-12 scaling=0.95 benchmark_Eint=-2.274 benchmark_unit=kcal/mol group=noHB
  H    1.358096013  -0.597745525  -1.224027174
  H    2.795201164   0.558221776  -1.231654198
  H    2.795201164   0.558221776   1.231654198
  H    1.358096013  -0.597745525   1.224027174
  C    2.075185666  -0.014555720  -0.662325678
  C    2.075185666  -0.014555720   0.662325678
  H   -1.777290529   1.671783423   0.885146583
  H   -0.240473335   1.653034008   0.000000000
  H   -1.777290529   1.671783423  -0.885146583
  C   -1.268222624   1.294669287   0.000000000
  C   -1.271419792  -0.158295035   0.000000000
  N   -1.258585663  -1.306642068   0.000000000
