15
charge=0 charge_a=0 charge_b=0 selection_a=1-6 selection_b=7-15 scaling=0.8 benchmark_Eint=0.432 benchmark_unit=kcal/mol group=noHB
  H    1.073849117  -0.000001496  -0.969331769
  H    2.853979759  -0.000000454  -1.452840587
  H    3.502887572   0.000001043   0.918487363
  H    1.729872596  -0.000000039   1.404747976
  C    2.111911541  -0.000000659  -0.665239994
  C    2.465539518   0.000000600   0.611293472
  H   -0.861277105  -2.020436724  -0.423548715
  H   -1.876491939  -1.225362846   0.801398958
  H   -0.105553156  -1.231409346   0.976667487
  H   -0.861276896   2.020436502  -0.423550067
  H   -1.876491953   1.225363571   0.801398039
  H   -0.105553191   1.231410011   0.976666767
  C   -0.927944071  -1.173953703   0.255108246
  O   -0.848258199  -0.000000163  -0.523412441
  C   -0.927944028   1.173953911   0.255107445
