16
charge=0 charge_a=0 charge_b=0 selection_a=1-6 selection_b=7-16 scaling=2.0 benchmark_Eint=-0.210 benchmark_unit=kcal/mol group=noHB
  H    1.698527829   1.223267441  -0.626344380
  H    2.934049025   1.231773576   0.742904465
  H    2.934049025  -1.231773576   0.742904465
  H    1.698527829  -1.223267441  -0.626344380
  C    2.315317383   0.662201732   0.062127049
  C    2.315317383  -0.662201732   0.062127049
  H   -5.142233916   1.311048281   1.093281318
  H   -4.092508862   2.139918081  -0.083810834
  H   -3.404511257   1.326929111   1.341628007
  H   -4.092508862  -2.139918081  -0.083810834
  H   -5.142233916  -1.311048281   1.093281318
  C   -4.181524863   1.283068800   0.577001605
  C   -4.043050552   0.000000000  -0.208822639
  O   -3.822017523   0.000000000  -1.397426067
  C   -4.181524863  -1.283068800   0.577001605
  H   -3.404511257  -1.326929111   1.341628007
