20
charge=0 charge_a=0 charge_b=0 selection_a=1-6 selection_b=7-20 scaling=1.0 benchmark_Eint=-3.153 benchmark_unit=kcal/mol group=noHB
  H   -4.084628485   0.299015070  -0.000000000
  H   -2.490190963  -0.627430699  -0.000000000
  H   -1.257432297   1.499875290  -0.000000000
  H   -2.851359991   2.423656511  -0.000000000
  C   -3.002520662   0.325103344  -0.000000000
  C   -2.337826994   1.470854519  -0.000000000
  H    0.428222232  -0.938517911   2.140549094
  H    2.221889719   2.310200880   0.000000000
  H    1.617871704   1.210915876   2.138712163
  H    0.428222232  -0.938517911  -2.140549094
  H   -0.294264855  -2.841794181   0.834829785
  H    1.617871704   1.210915876  -2.138712163
  H   -0.294264855  -2.841794181  -0.834829785
  C    1.704409172   1.362433316   0.000000000
  C    1.365645955   0.742898781   1.197501208
  C    0.698988378  -0.472598316   1.202355194
  C    0.357564418  -1.097783541   0.000000000
  C    0.698988378  -0.472598316  -1.202355194
  C    1.365645955   0.742898781  -1.197501208
  N   -0.372849706  -2.285681506   0.000000000
