16
charge=0 charge_a=0 charge_b=0 selection_a=1-6 selection_b=7-16 scaling=1.05 benchmark_Eint=-2.339 benchmark_unit=kcal/mol group=noHB
  H    1.035275086   0.000000000   0.938798971
  H    2.795714630   0.000000000   1.494071783
  H    3.545688909   0.000000000  -0.845065539
  H    1.795970557   0.000000000  -1.408660989
  C    2.086029542   0.000000000   0.676729768
  C    2.495827608   0.000000000  -0.583198709
  H   -0.586562396  -1.287497063  -0.822068930
  H   -2.343351742  -1.258970303  -1.025450518
  H   -1.609642248  -2.084637890   0.365426639
  H   -2.337359674   0.000000000   1.137224163
  H   -1.609642248   2.084637890   0.365426639
  H   -0.586562396   1.287497063  -0.822068930
  H   -2.343351742   1.258970303  -1.025450518
  C   -1.532153744  -1.214141101  -0.283860141
  N   -1.539902202   0.000000000   0.517077103
  C   -1.532153744   1.214141101  -0.283860141
