16
charge=0 charge_a=0 charge_b=0 selection_a=1-6 selection_b=7-16 scaling=0.8 benchmark_Eint=0.411 benchmark_unit=kcal/mol group=noHB
  H    1.035275086   0.000000000   0.938798971
  H    2.795714630   0.000000000   1.494071783
  H    3.545688909   0.000000000  -0.845065539
  H    1.795970557   0.000000000  -1.408660989
  C    2.086029542   0.000000000   0.676729768
  C    2.495827608   0.000000000  -0.583198709
  H    0.034927498  -1.287497063  -0.809461181
  H   -1.721861848  -1.258970303  -1.012842769
  H   -0.988152354  -2.084637890   0.378034388
  H   -1.715869780   0.000000000   1.149831912
  H   -0.988152354   2.084637890   0.378034388
  H    0.034927498   1.287497063  -0.809461181
  H   -1.721861848   1.258970303  -1.012842769
  C   -0.910663850  -1.214141101  -0.271252392
  N   -0.918412308   0.000000000   0.529684852
  C   -0.910663850   1.214141101  -0.271252392
