15
charge=0 charge_a=0 charge_b=0 selection_a=1-6 selection_b=7-15 scaling=0.9 benchmark_Eint=-1.621 benchmark_unit=kcal/mol group=noHB
  H    1.073849117  -0.000001496  -0.969331769
  H    2.853979759  -0.000000454  -1.452840587
  H    3.502887572   0.000001043   0.918487363
  H    1.729872596  -0.000000039   1.404747976
  C    2.111911541  -0.000000659  -0.665239994
  C    2.465539518   0.000000600   0.611293472
  H   -1.106757329  -2.020436717  -0.420690432
  H   -2.121972163  -1.225362839   0.804257241
  H   -0.351033380  -1.231409339   0.979525770
  H   -1.106757120   2.020436509  -0.420691784
  H   -2.121972177   1.225363578   0.804256322
  H   -0.351033415   1.231410018   0.979525050
  C   -1.173424295  -1.173953696   0.257966529
  O   -1.093738423  -0.000000156  -0.520554158
  C   -1.173424252   1.173953918   0.257965728
