20
charge=0 charge_a=0 charge_b=0 selection_a=1-6 selection_b=7-20 scaling=1.05 benchmark_Eint=-2.709 benchmark_unit=kcal/mol group=noHB
  H    1.791099504   0.373266977   1.072423138
  H    3.621671277   0.178639179   0.895952426
  H    3.319003297  -0.411698881  -1.475605882
  H    1.499352053  -0.214052125  -1.285361506
  C    2.639635131   0.140620896   0.443065407
  C    2.481136988  -0.177166908  -0.832643632
  H   -2.717001017  -0.052688323  -1.272312421
  H   -1.746757863  -1.479948102  -1.637033975
  H   -1.112858167   0.141059502  -1.949393331
  H   -0.147506645  -2.305574773   0.247792206
  H   -2.070964755   2.037033688  -0.312955554
  H   -0.348694601   2.094049894  -0.699758076
  H   -0.924127088   2.736538424   0.836041136
  H   -1.798316642  -2.322259899   0.844032501
  H   -0.515137488  -1.573373992   1.822225231
  C   -1.131910938  -0.409552221   0.139328953
  N   -0.849545162   0.659021161   0.762110089
  C   -1.067114047   1.939130137   0.110935471
  C   -0.882578184  -1.727746933   0.812281749
  C   -1.704626891  -0.461394201  -1.259776980
