15
charge=0 charge_a=0 charge_b=0 selection_a=1-6 selection_b=7-15 scaling=1.1 benchmark_Eint=-1.982 benchmark_unit=kcal/mol group=noHB
  H    1.340673174   1.099396203   0.000000000
  H    3.065870794   1.743163357   0.000000000
  H    3.925971160  -0.561768215   0.000000000
  H    2.196860173  -1.201544889   0.000000000
  C    2.401241323   0.889256579   0.000000000
  C    2.864708134  -0.351189573   0.000000000
  H   -2.290888767   1.442155268  -1.368908370
  H   -2.290888767   1.442155268   1.368908370
  H   -0.933075320  -0.833666495  -2.046990520
  H   -0.933075320  -0.833666495   2.046990520
  C   -1.856581879   0.706402441   0.716371208
  C   -1.856581879   0.706402441  -0.716371208
  C   -1.192107237  -0.411636958  -1.094583231
  O   -0.780040886  -1.108401551   0.000000000
  C   -1.192107237  -0.411636958   1.094583231
