13
charge=0 charge_a=0 charge_b=0 selection_a=1-6 selection_b=7-13 scaling=1.5 benchmark_Eint=-0.906 benchmark_unit=kcal/mol group=noHB
  H    2.757157500   1.146870685   1.052411585
  H    1.548141909   1.349701530  -0.320452111
  H    1.907429458  -0.989461339  -0.985314805
  H    3.120712256  -1.194962920   0.387416776
  C    2.234342754   0.706844371   0.213633986
  C    2.428732846  -0.554364791  -0.143479933
  H   -3.107431141  -0.628468329   1.815056991
  H   -1.463029153  -1.111581276   1.310316359
  H   -2.870698109  -1.960182887   0.617797112
  C   -2.502561589  -1.018678164   1.006333884
  N   -2.511489212  -0.021968915  -0.106462413
  O   -2.683090265   1.146232928   0.190700509
  O   -2.307092171  -0.442025067  -1.231299890
