12
charge=0 charge_a=0 charge_b=0 selection_a=1-6 selection_b=7-12 scaling=1.1 benchmark_Eint=-2.067 benchmark_unit=kcal/mol group=noHB
  H    2.808783489   0.538411045  -1.231451237
  H    1.349845487  -0.588677753  -1.225158205
  H    1.349845487  -0.588677753   1.225158205
  H    2.808783489   0.538411045   1.231451237
  C    2.077912977  -0.020456786  -0.662248340
  C    2.077912977  -0.020456786   0.662248340
  H   -2.209617728   1.606997449  -0.886505474
  H   -0.670690038   1.567405869   0.000000000
  H   -2.209617728   1.606997449   0.886505474
  C   -1.725356259  -1.351231640   0.000000000
  N   -1.731471553  -0.188277143   0.000000000
  C   -1.704568072   1.229288583   0.000000000
