13
charge=0 charge_a=0 charge_b=0 selection_a=1-6 selection_b=7-13 scaling=0.95 benchmark_Eint=-1.936 benchmark_unit=kcal/mol group=noHB
  H   -0.685664906  -0.927985382   0.000000000
  H   -2.429813336  -1.531486422   0.000000000
  H   -3.244771408   0.785279066   0.000000000
  H   -1.510151131   1.396931578   0.000000000
  C   -1.742960093  -0.694679542   0.000000000
  C   -2.187780331   0.553476374   0.000000000
  N    1.708771667  -0.662207692   0.000000000
  H    2.230111667  -0.962391255   0.812656575
  H    2.230111667  -0.962391255  -0.812656575
  C    1.530265046   0.790373954   0.000000000
  H    0.952479397   1.079207065  -0.876975902
  H    2.459831531   1.370510879   0.000000000
  H    0.952479397   1.079207065   0.876975902
