13
charge=0 charge_a=0 charge_b=0 selection_a=1-6 selection_b=7-13 scaling=0.8 benchmark_Eint=0.647 benchmark_unit=kcal/mol group=noHB
  H    1.565574378   0.368293716   1.318214380
  H    2.589124225  -1.152231063   1.159824813
  H    2.981357396  -0.638708991  -1.216448837
  H    1.954237436   0.882153898  -1.053243783
  C    2.166650579  -0.274321598   0.689745774
  C    2.376534586   0.001762993  -0.588311909
  H   -1.244632736  -1.446330051  -1.309224173
  H    0.387343134  -1.730424322  -0.652610402
  H   -1.028991610  -2.460772412   0.126202492
  C   -0.662095447  -1.584786764  -0.396832639
  N   -0.827767630  -0.445563963   0.519878321
  N   -0.472298165   0.643720260   0.093655934
  N   -0.177539216   1.697153767  -0.190040697
