17
charge=0 charge_a=0 charge_b=0 selection_a=1-6 selection_b=7-17 scaling=1.5 benchmark_Eint=-0.787 benchmark_unit=kcal/mol group=noHB
  H   -1.616331998   0.222598541   1.237926685
  H   -3.434282556   0.496053148   1.175025940
  H   -3.472267037  -0.214220583  -1.175696309
  H   -1.653674234  -0.492201296  -1.125755098
  C   -2.531114914   0.193667471   0.661806334
  C   -2.552594454  -0.189093153  -0.606477502
  H    2.243337753  -2.649222429  -0.785743456
  H    3.128414395  -1.983455204   0.615974494
  H    1.355876163  -1.968803028   0.604981753
  H    2.598250561   2.562075920  -0.166515479
  C    2.305021108   0.469387532   0.069190020
  O    2.259811915  -0.631372360  -0.708714163
  C    2.246999910  -1.888033055  -0.013265018
  C    2.240319653   1.723568223  -0.754531601
  O    2.358442569   0.424978587   1.271201122
  H    1.199459073   1.902192916  -1.026426077
  H    2.814426848   1.621819010  -1.671860224
