13
charge=0 charge_a=0 charge_b=0 selection_a=1-6 selection_b=7-13 scaling=0.9 benchmark_Eint=-2.451 benchmark_unit=kcal/mol group=noHB
  H   -1.585714913  -0.353942990  -1.332060745
  H   -2.783795769   1.037394143  -1.172189595
  H   -2.990948082   0.569249664   1.237614193
  H   -1.784727644  -0.817352164   1.063216547
  C   -2.228680958   0.239743678  -0.696445596
  C   -2.338573167  -0.012623970   0.599661302
  H   -0.197344996   1.603583581   0.606002844
  H    1.248662846   2.432454312  -0.045333662
  H    1.404668983   1.356656068   1.372615940
  C    0.874210149   1.540466439   0.441872029
  O    1.150941343   0.454451188  -0.492849976
  C    0.793748501  -0.715170400  -0.105352881
  N    0.486514926  -1.783294995   0.208019227
