12
charge=0 charge_a=0 charge_b=0 selection_a=1-6 selection_b=7-12 scaling=1.05 benchmark_Eint=-2.241 benchmark_unit=kcal/mol group=noHB
  H    2.808783489   0.538411045  -1.231451237
  H    1.349845487  -0.588677753  -1.225158205
  H    1.349845487  -0.588677753   1.225158205
  H    2.808783489   0.538411045   1.231451237
  C    2.077912977  -0.020456786  -0.662248340
  C    2.077912977  -0.020456786   0.662248340
  H   -2.060042315   1.605476665  -0.886505474
  H   -0.521114625   1.565885085   0.000000000
  H   -2.060042315   1.605476665   0.886505474
  C   -1.575780846  -1.352752424   0.000000000
  N   -1.581896140  -0.189797927   0.000000000
  C   -1.554992659   1.227767799   0.000000000
