13
charge=0 charge_a=0 charge_b=0 selection_a=1-6 selection_b=7-13 scaling=2.0 benchmark_Eint=-0.180 benchmark_unit=kcal/mol group=noHB
  H   -0.685664906  -0.927985382   0.000000000
  H   -2.429813336  -1.531486422   0.000000000
  H   -3.244771408   0.785279066   0.000000000
  H   -1.510151131   1.396931578   0.000000000
  C   -1.742960093  -0.694679542   0.000000000
  C   -2.187780331   0.553476374   0.000000000
  N    4.369429083  -0.566895257   0.000000000
  H    4.890769083  -0.867078820   0.812656575
  H    4.890769083  -0.867078820  -0.812656575
  C    4.190922462   0.885686389   0.000000000
  H    3.613136813   1.174519500  -0.876975902
  H    5.120488947   1.465823314   0.000000000
  H    3.613136813   1.174519500   0.876975902
