12
charge=0 charge_a=0 charge_b=0 selection_a=1-6 selection_b=7-12 scaling=0.9 benchmark_Eint=-1.705 benchmark_unit=kcal/mol group=noHB
  H   -1.013884107   0.371072959  -1.217879016
  H   -2.683997190  -0.418308490  -1.232574598
  H   -2.683997190  -0.418308490   1.232574598
  H   -1.013884107   0.371072959   1.217879016
  C   -1.852006081  -0.026609922  -0.662232563
  C   -1.852006081  -0.026609922   0.662232563
  O    1.120572252   0.674058354   0.000000000
  H    1.894894783   1.239991131   0.000000000
  C    1.539185366  -0.686223777   0.000000000
  H    0.635610396  -1.289690947   0.000000000
  H    2.123868763  -0.933051541   0.890055494
  H    2.123868763  -0.933051541  -0.890055494
