12
charge=0 charge_a=0 charge_b=0 selection_a=1-6 selection_b=7-12 scaling=0.9 benchmark_Eint=-1.744 benchmark_unit=kcal/mol group=noHB
  H    2.808783489   0.538411045  -1.231451237
  H    1.349845487  -0.588677753  -1.225158205
  H    1.349845487  -0.588677753   1.225158205
  H    2.808783489   0.538411045   1.231451237
  C    2.077912977  -0.020456786  -0.662248340
  C    2.077912977  -0.020456786   0.662248340
  H   -1.611316076   1.600914313  -0.886505474
  H   -0.072388386   1.561322733   0.000000000
  H   -1.611316076   1.600914313   0.886505474
  C   -1.127054607  -1.357314776   0.000000000
  N   -1.133169901  -0.194360279   0.000000000
  C   -1.106266420   1.223205447   0.000000000
