13
charge=0 charge_a=0 charge_b=0 selection_a=1-6 selection_b=7-13 scaling=0.9 benchmark_Eint=-1.569 benchmark_unit=kcal/mol group=noHB
  H   -0.685664906  -0.927985382   0.000000000
  H   -2.429813336  -1.531486422   0.000000000
  H   -3.244771408   0.785279066   0.000000000
  H   -1.510151131   1.396931578   0.000000000
  C   -1.742960093  -0.694679542   0.000000000
  C   -2.187780331   0.553476374   0.000000000
  N    1.582073695  -0.666746380   0.000000000
  H    2.103413695  -0.966929943   0.812656575
  H    2.103413695  -0.966929943  -0.812656575
  C    1.403567074   0.785835266   0.000000000
  H    0.825781425   1.074668377  -0.876975902
  H    2.333133559   1.365972191   0.000000000
  H    0.825781425   1.074668377   0.876975902
