13
charge=0 charge_a=0 charge_b=0 selection_a=1-6 selection_b=7-13 scaling=0.85 benchmark_Eint=-1.116 benchmark_unit=kcal/mol group=noHB
  H    1.565574378   0.368293716   1.318214380
  H    2.589124225  -1.152231063   1.159824813
  H    2.981357396  -0.638708991  -1.216448837
  H    1.954237436   0.882153898  -1.053243783
  C    2.166650579  -0.274321598   0.689745774
  C    2.376534586   0.001762993  -0.588311909
  H   -1.390016744  -1.437619226  -1.312482500
  H    0.241959126  -1.721713497  -0.655868729
  H   -1.174375618  -2.452061587   0.122944165
  C   -0.807479455  -1.576075939  -0.400090966
  N   -0.973151638  -0.436853138   0.516619994
  N   -0.617682173   0.652431085   0.090397607
  N   -0.322923224   1.705864592  -0.193299024
