15
charge=0 charge_a=0 charge_b=0 selection_a=1-6 selection_b=7-15 scaling=0.8 benchmark_Eint=0.749 benchmark_unit=kcal/mol group=noHB
  H    1.340673174   1.099396203   0.000000000
  H    3.065870794   1.743163357   0.000000000
  H    3.925971160  -0.561768215   0.000000000
  H    2.196860173  -1.201544889   0.000000000
  C    2.401241323   0.889256579   0.000000000
  C    2.864708134  -0.351189573   0.000000000
  H   -1.482104883   1.524832820  -1.368908370
  H   -1.482104883   1.524832820   1.368908370
  H   -0.124291436  -0.750988943  -2.046990520
  H   -0.124291436  -0.750988943   2.046990520
  C   -1.047797995   0.789079993   0.716371208
  C   -1.047797995   0.789079993  -0.716371208
  C   -0.383323353  -0.328959406  -1.094583231
  O    0.028742998  -1.025723999   0.000000000
  C   -0.383323353  -0.328959406   1.094583231
