13
charge=0 charge_a=0 charge_b=0 selection_a=1-6 selection_b=7-13 scaling=1.25 benchmark_Eint=-1.865 benchmark_unit=kcal/mol group=noHB
  H    2.757157500   1.146870685   1.052411585
  H    1.548141909   1.349701530  -0.320452111
  H    1.907429458  -0.989461339  -0.985314805
  H    3.120712256  -1.194962920   0.387416776
  C    2.234342754   0.706844371   0.213633986
  C    2.428732846  -0.554364791  -0.143479933
  H   -2.393464705  -0.605045622   1.825728395
  H   -0.749062717  -1.088158569   1.320987763
  H   -2.156731673  -1.936760180   0.628468516
  C   -1.788595153  -0.995255457   1.017005288
  N   -1.797522776   0.001453792  -0.095791009
  O   -1.969123829   1.169655635   0.201371913
  O   -1.593125735  -0.418602360  -1.220628486
