13
charge=0 charge_a=0 charge_b=0 selection_a=1-6 selection_b=7-13 scaling=0.8 benchmark_Eint=0.700 benchmark_unit=kcal/mol group=noHB
  H    2.757157500   1.146870685   1.052411585
  H    1.548141909   1.349701530  -0.320452111
  H    1.907429458  -0.989461339  -0.985314805
  H    3.120712256  -1.194962920   0.387416776
  C    2.234342754   0.706844371   0.213633986
  C    2.428732846  -0.554364791  -0.143479933
  H   -1.108325120  -0.562884749   1.844936922
  H    0.536076868  -1.045997696   1.340196290
  H   -0.871592088  -1.894599307   0.647677043
  C   -0.503455568  -0.953094584   1.036213815
  N   -0.512383191   0.043614665  -0.076582482
  O   -0.683984244   1.211816508   0.220580440
  O   -0.307986150  -0.376441487  -1.201419959
