12
charge=0 charge_a=0 charge_b=0 selection_a=1-6 selection_b=7-12 scaling=0.85 benchmark_Eint=-0.905 benchmark_unit=kcal/mol group=noHB
  H   -1.363032720   0.070290704   1.329249197
  H   -2.935330906  -0.832426439   1.006748473
  H   -2.887852907  -0.077551066  -1.335179539
  H   -1.315902427   0.825111245  -1.011634728
  C   -2.137135794  -0.208876517   0.626628042
  C   -2.111593883   0.197077117  -0.633568486
  H    1.838262181  -1.713853790   0.036590584
  H    0.084886710  -1.737606041  -0.131462999
  H    1.071783157  -0.897812050  -1.384152936
  C    0.980666912  -1.147720364  -0.328532309
  N    0.875989359   0.060523214   0.512290080
  O    0.866378096   1.089316317  -0.104635820
