13
charge=0 charge_a=0 charge_b=0 selection_a=1-6 selection_b=7-13 scaling=1.05 benchmark_Eint=-2.993 benchmark_unit=kcal/mol group=noHB
  H    2.757157500   1.146870685   1.052411585
  H    1.548141909   1.349701530  -0.320452111
  H    1.907429458  -0.989461339  -0.985314805
  H    3.120712256  -1.194962920   0.387416776
  C    2.234342754   0.706844371   0.213633986
  C    2.428732846  -0.554364791  -0.143479933
  H   -1.822291556  -0.586307456   1.834265518
  H   -0.177889568  -1.069420403   1.329524886
  H   -1.585558524  -1.918022014   0.637005639
  C   -1.217422004  -0.976517291   1.025542411
  N   -1.226349627   0.020191958  -0.087253886
  O   -1.397950680   1.188393801   0.209909036
  O   -1.021952586  -0.399864194  -1.212091363
