13
charge=0 charge_a=0 charge_b=0 selection_a=1-6 selection_b=7-13 scaling=1.1 benchmark_Eint=-2.120 benchmark_unit=kcal/mol group=noHB
  H    1.565574378   0.368293716   1.318214380
  H    2.589124225  -1.152231063   1.159824813
  H    2.981357396  -0.638708991  -1.216448837
  H    1.954237436   0.882153898  -1.053243783
  C    2.166650579  -0.274321598   0.689745774
  C    2.376534586   0.001762993  -0.588311909
  H   -2.116936786  -1.394065101  -1.328774134
  H   -0.484960916  -1.678159372  -0.672160363
  H   -1.901295660  -2.408507462   0.106652531
  C   -1.534399497  -1.532521814  -0.416382600
  N   -1.700071680  -0.393299013   0.500328360
  N   -1.344602215   0.695985210   0.074105973
  N   -1.049843266   1.749418717  -0.209590658
