12
charge=0 charge_a=0 charge_b=0 selection_a=1-6 selection_b=7-12 scaling=1.05 benchmark_Eint=-1.968 benchmark_unit=kcal/mol group=noHB
  H   -1.363032720   0.070290704   1.329249197
  H   -2.935330906  -0.832426439   1.006748473
  H   -2.887852907  -0.077551066  -1.335179539
  H   -1.315902427   0.825111245  -1.011634728
  C   -2.137135794  -0.208876517   0.626628042
  C   -2.111593883   0.197077117  -0.633568486
  H    2.390987964  -1.712403249   0.037464765
  H    0.637612493  -1.736155500  -0.130588818
  H    1.624508940  -0.896361509  -1.383278755
  C    1.533392695  -1.146269823  -0.327658128
  N    1.428715142   0.061973755   0.513164261
  O    1.419103879   1.090766858  -0.103761639
