12
charge=0 charge_a=0 charge_b=0 selection_a=1-6 selection_b=7-12 scaling=0.95 benchmark_Eint=-2.024 benchmark_unit=kcal/mol group=noHB
  H   -1.013884107   0.371072959  -1.217879016
  H   -2.683997190  -0.418308490  -1.232574598
  H   -2.683997190  -0.418308490   1.232574598
  H   -1.013884107   0.371072959   1.217879016
  C   -1.852006081  -0.026609922  -0.662232563
  C   -1.852006081  -0.026609922   0.662232563
  O    1.256254520   0.675976810   0.000000000
  H    2.030577051   1.241909587   0.000000000
  C    1.674867634  -0.684305321   0.000000000
  H    0.771292664  -1.287772491   0.000000000
  H    2.259551031  -0.931133085   0.890055494
  H    2.259551031  -0.931133085  -0.890055494
