17
charge=0 charge_a=0 charge_b=0 selection_a=1-6 selection_b=7-17 scaling=1.25 benchmark_Eint=-1.674 benchmark_unit=kcal/mol group=noHB
  H   -1.616331998   0.222598541   1.237926685
  H   -3.434282556   0.496053148   1.175025940
  H   -3.472267037  -0.214220583  -1.175696309
  H   -1.653674234  -0.492201296  -1.125755098
  C   -2.531114914   0.193667471   0.661806334
  C   -2.552594454  -0.189093153  -0.606477502
  H    1.584580955  -2.648601070  -0.778566912
  H    2.469657597  -1.982833845   0.623151038
  H    0.697119365  -1.968181669   0.612158297
  H    1.939493763   2.562697279  -0.159338935
  C    1.646264310   0.470008891   0.076366564
  O    1.601055117  -0.630751001  -0.701537619
  C    1.588243112  -1.887411696  -0.006088474
  C    1.581562855   1.724189582  -0.747355057
  O    1.699685771   0.425599946   1.278377666
  H    0.540702275   1.902814275  -1.019249533
  H    2.155670050   1.622440369  -1.664683680
