17
charge=0 charge_a=0 charge_b=0 selection_a=1-6 selection_b=7-17 scaling=0.9 benchmark_Eint=-2.231 benchmark_unit=kcal/mol group=noHB
  H   -1.616331998   0.222598541   1.237926685
  H   -3.434282556   0.496053148   1.175025940
  H   -3.472267037  -0.214220583  -1.175696309
  H   -1.653674234  -0.492201296  -1.125755098
  C   -2.531114914   0.193667471   0.661806334
  C   -2.552594454  -0.189093153  -0.606477502
  H    0.662321438  -2.647731166  -0.768519750
  H    1.547398080  -1.981963941   0.633198200
  H   -0.225140152  -1.967311765   0.622205459
  H    1.017234246   2.563567183  -0.149291773
  C    0.724004793   0.470878795   0.086413726
  O    0.678795600  -0.629881097  -0.691490457
  C    0.665983595  -1.886541792   0.003958688
  C    0.659303338   1.725059486  -0.737307895
  O    0.777426254   0.426469850   1.288424828
  H   -0.381557242   1.903684179  -1.009202371
  H    1.233410533   1.623310273  -1.654636518
