17
charge=0 charge_a=0 charge_b=0 selection_a=1-6 selection_b=7-17 scaling=1.0 benchmark_Eint=-2.766 benchmark_unit=kcal/mol group=noHB
  H   -1.616331998   0.222598541   1.237926685
  H   -3.434282556   0.496053148   1.175025940
  H   -3.472267037  -0.214220583  -1.175696309
  H   -1.653674234  -0.492201296  -1.125755098
  C   -2.531114914   0.193667471   0.661806334
  C   -2.552594454  -0.189093153  -0.606477502
  H    0.925824157  -2.647979710  -0.771390368
  H    1.810900799  -1.982212485   0.630327582
  H    0.038362567  -1.967560309   0.619334841
  H    1.280736965   2.563318639  -0.152162391
  C    0.987507512   0.470630251   0.083543108
  O    0.942298319  -0.630129641  -0.694361075
  C    0.929486314  -1.886790336   0.001088070
  C    0.922806057   1.724810942  -0.740178513
  O    1.040928973   0.426221306   1.285554210
  H   -0.118054523   1.903435635  -1.012072989
  H    1.496913252   1.623061729  -1.657507136
