17
charge=0 charge_a=0 charge_b=0 selection_a=1-6 selection_b=7-17 scaling=2.0 benchmark_Eint=-0.192 benchmark_unit=kcal/mol group=noHB
  H   -1.616331998   0.222598541   1.237926685
  H   -3.434282556   0.496053148   1.175025940
  H   -3.472267037  -0.214220583  -1.175696309
  H   -1.653674234  -0.492201296  -1.125755098
  C   -2.531114914   0.193667471   0.661806334
  C   -2.552594454  -0.189093153  -0.606477502
  H    3.560851350  -2.650465148  -0.800096544
  H    4.445927992  -1.984697923   0.601621406
  H    2.673389760  -1.970045747   0.590628665
  H    3.915764158   2.560833201  -0.180868567
  C    3.622534705   0.468144813   0.054836932
  O    3.577325512  -0.632615079  -0.723067251
  C    3.564513507  -1.889275774  -0.027618106
  C    3.557833250   1.722325504  -0.768884689
  O    3.675956166   0.423735868   1.256848034
  H    2.516972670   1.900950197  -1.040779165
  H    4.131940445   1.620576291  -1.686213312
