20
charge=0 charge_a=0 charge_b=0 selection_a=1-6 selection_b=7-20 scaling=0.9 benchmark_Eint=-2.268 benchmark_unit=kcal/mol group=noHB
  H    1.791099504   0.373266977   1.072423138
  H    3.621671277   0.178639179   0.895952426
  H    3.319003297  -0.411698881  -1.475605882
  H    1.499352053  -0.214052125  -1.285361506
  C    2.639635131   0.140620896   0.443065407
  C    2.481136988  -0.177166908  -0.832643632
  H   -2.335651841  -0.055414369  -1.301400864
  H   -1.365408687  -1.482674148  -1.666122418
  H   -0.731508991   0.138333456  -1.978481774
  H    0.233842531  -2.308300819   0.218703763
  H   -1.689615579   2.034307642  -0.342043997
  H    0.032654575   2.091323848  -0.728846519
  H   -0.542777912   2.733812378   0.806952693
  H   -1.416967466  -2.324985945   0.814944058
  H   -0.133788312  -1.576100038   1.793136788
  C   -0.750561762  -0.412278267   0.110240510
  N   -0.468195986   0.656295115   0.733021646
  C   -0.685764871   1.936404091   0.081847028
  C   -0.501229008  -1.730472979   0.783193306
  C   -1.323277715  -0.464120247  -1.288865423
