20
charge=0 charge_a=0 charge_b=0 selection_a=1-6 selection_b=7-20 scaling=0.8 benchmark_Eint=0.449 benchmark_unit=kcal/mol group=noHB
  H    1.791099504   0.373266977   1.072423138
  H    3.621671277   0.178639179   0.895952426
  H    3.319003297  -0.411698881  -1.475605882
  H    1.499352053  -0.214052125  -1.285361506
  C    2.639635131   0.140620896   0.443065407
  C    2.481136988  -0.177166908  -0.832643632
  H   -2.081419057  -0.057231734  -1.320793160
  H   -1.111175903  -1.484491513  -1.685514714
  H   -0.477276207   0.136516091  -1.997874070
  H    0.488075315  -2.310118184   0.199311467
  H   -1.435382795   2.032490277  -0.361436293
  H    0.286887359   2.089506483  -0.748238815
  H   -0.288545128   2.731995013   0.787560397
  H   -1.162734682  -2.326803310   0.795551762
  H    0.120444472  -1.577917403   1.773744492
  C   -0.496328978  -0.414095632   0.090848214
  N   -0.213963202   0.654477750   0.713629350
  C   -0.431532087   1.934586726   0.062454732
  C   -0.246996224  -1.732290344   0.763801010
  C   -1.069044931  -0.465937612  -1.308257719
