12
charge=0 charge_a=0 charge_b=0 selection_a=1-6 selection_b=7-12 scaling=2.0 benchmark_Eint=-0.201 benchmark_unit=kcal/mol group=noHB
  H    2.808783489   0.538411045  -1.231451237
  H    1.349845487  -0.588677753  -1.225158205
  H    1.349845487  -0.588677753   1.225158205
  H    2.808783489   0.538411045   1.231451237
  C    2.077912977  -0.020456786  -0.662248340
  C    2.077912977  -0.020456786   0.662248340
  H   -4.901975159   1.634371563  -0.886505474
  H   -3.363047469   1.594779983   0.000000000
  H   -4.901975159   1.634371563   0.886505474
  C   -4.417713690  -1.323857526   0.000000000
  N   -4.423828984  -0.160903029   0.000000000
  C   -4.396925503   1.256662697   0.000000000
