12
charge=0 charge_a=0 charge_b=0 selection_a=1-6 selection_b=7-12 scaling=2.0 benchmark_Eint=-0.174 benchmark_unit=kcal/mol group=noHB
  H   -1.363032720   0.070290704   1.329249197
  H   -2.935330906  -0.832426439   1.006748473
  H   -2.887852907  -0.077551066  -1.335179539
  H   -1.315902427   0.825111245  -1.011634728
  C   -2.137135794  -0.208876517   0.626628042
  C   -2.111593883   0.197077117  -0.633568486
  H    5.016435433  -1.705513178   0.041617127
  H    3.263059962  -1.729265429  -0.126436456
  H    4.249956409  -0.889471438  -1.379126393
  C    4.158840164  -1.139379752  -0.323505766
  N    4.054162611   0.068863826   0.517316623
  O    4.044551348   1.097656929  -0.099609277
