13
charge=0 charge_a=0 charge_b=0 selection_a=1-6 selection_b=7-13 scaling=2.0 benchmark_Eint=-0.260 benchmark_unit=kcal/mol group=noHB
  H    2.757157500   1.146870685   1.052411585
  H    1.548141909   1.349701530  -0.320452111
  H    1.907429458  -0.989461339  -0.985314805
  H    3.120712256  -1.194962920   0.387416776
  C    2.234342754   0.706844371   0.213633986
  C    2.428732846  -0.554364791  -0.143479933
  H   -4.535364013  -0.675313744   1.793714183
  H   -2.890962025  -1.158426691   1.288973551
  H   -4.298630981  -2.007028302   0.596454304
  C   -3.930494461  -1.065523579   0.984991076
  N   -3.939422084  -0.068814330  -0.127805221
  O   -4.111023137   1.099387513   0.169357701
  O   -3.735025043  -0.488870482  -1.252642698
