13
charge=0 charge_a=0 charge_b=0 selection_a=1-6 selection_b=7-13 scaling=1.0 benchmark_Eint=-2.968 benchmark_unit=kcal/mol group=noHB
  H   -1.585714913  -0.353942990  -1.332060745
  H   -2.783795769   1.037394143  -1.172189595
  H   -2.990948082   0.569249664   1.237614193
  H   -1.784727644  -0.817352164   1.063216547
  C   -2.228680958   0.239743678  -0.696445596
  C   -2.338573167  -0.012623970   0.599661302
  H    0.088993857   1.589432050   0.612113980
  H    1.535001699   2.418302781  -0.039222526
  H    1.691007836   1.342504537   1.378727076
  C    1.160549002   1.526314908   0.447983165
  O    1.437280196   0.440299657  -0.486738840
  C    1.080087354  -0.729321931  -0.099241745
  N    0.772853779  -1.797446526   0.214130363
