15
charge=0 charge_a=0 charge_b=0 selection_a=1-6 selection_b=7-15 scaling=1.5 benchmark_Eint=-0.633 benchmark_unit=kcal/mol group=noHB
  H    1.340673174   1.099396203   0.000000000
  H    3.065870794   1.743163357   0.000000000
  H    3.925971160  -0.561768215   0.000000000
  H    2.196860173  -1.201544889   0.000000000
  C    2.401241323   0.889256579   0.000000000
  C    2.864708134  -0.351189573   0.000000000
  H   -3.369267279   1.331918533  -1.368908370
  H   -3.369267279   1.331918533   1.368908370
  H   -2.011453832  -0.943903230  -2.046990520
  H   -2.011453832  -0.943903230   2.046990520
  C   -2.934960391   0.596165706   0.716371208
  C   -2.934960391   0.596165706  -0.716371208
  C   -2.270485749  -0.521873693  -1.094583231
  O   -1.858419398  -1.218638286   0.000000000
  C   -2.270485749  -0.521873693   1.094583231
