12
charge=0 charge_a=0 charge_b=0 selection_a=1-5 selection_b=6-12 scaling=1.1 benchmark_Eint=-1.004 benchmark_unit=kcal/mol group=noHB
  C   -2.603371942   0.065605317  -0.035860983
  H   -1.826877800   0.705772037   0.374219037
  H   -2.376881939  -0.159376136  -1.076087797
  H   -3.563198772   0.573524391   0.019339925
  H   -2.653046117  -0.860354137   0.532806634
  H    1.956904568  -1.903416602   0.171899947
  H    0.342373051  -1.757350999  -0.494818662
  H    0.650316968  -1.208430971   1.174403946
  H    1.841865058   0.087008356  -1.383674622
  C    1.062027979  -1.277277007   0.171619655
  C    1.403434324   0.080562433  -0.364561154
  O    1.232368120   1.114584480   0.225501561
