19
charge=0 charge_a=0 charge_b=0 selection_a=1-6 selection_b=7-19 scaling=0.95 benchmark_Eint=-3.678 benchmark_unit=kcal/mol group=noHB
  H    3.248284671  -1.180119597  -1.232706471
  H    4.063172067   0.469218733  -1.231786806
  H    4.063172067   0.469218733   1.231786806
  H    3.248284671  -1.180119597   1.232706471
  C    3.653323237  -0.354446731  -0.663106483
  C    3.653323237  -0.354446731   0.663106483
  H   -1.404665047   2.318967222   0.000000000
  H   -3.495250007  -1.432508175   0.000000000
  H   -3.529261606   1.044956494   0.000000000
  H    0.790032650  -1.346337193   0.000000000
  H    1.732306285   0.753321174   0.000000000
  H   -1.321066738  -2.618927214   0.000000000
  C   -2.570294720  -0.874986535   0.000000000
  C   -2.586413372   0.516117161   0.000000000
  C   -1.403058988   1.238798376   0.000000000
  C   -0.182549322   0.567727666   0.000000000
  C   -0.157667729  -0.825646234   0.000000000
  C   -1.350260510  -1.538230058   0.000000000
  O    0.951149468   1.321433612   0.000000000
