17
charge=0 charge_a=0 charge_b=0 selection_a=1-6 selection_b=7-17 scaling=1.0 benchmark_Eint=-2.573 benchmark_unit=kcal/mol group=noHB
  H   -2.393608658  -1.079283453  -0.000000000
  H   -4.089394920  -0.348731589  -0.000000000
  H   -3.108512908   1.907742281   0.000000000
  H   -1.421114751   1.171193523   0.000000000
  C   -3.018073539  -0.196392641  -0.000000000
  C   -2.491589285   1.018755217   0.000000000
  H    1.600339912   0.884179508   2.146607049
  H    0.307353509  -1.230368114   2.052296941
  C    1.709262578   1.053539913   0.000000000
  C    1.339605724   0.448971585   1.192996603
  C    0.616750464  -0.736440543   1.139544075
  N    0.258234125  -1.326839712   0.000000000
  C    0.616750464  -0.736440543  -1.139544075
  C    1.339605724   0.448971585  -1.192996603
  H    0.307353509  -1.230368114  -2.052296941
  H    1.600339912   0.884179508  -2.146607049
  H    2.270398009   1.977349128   0.000000000
