18
charge=0 charge_a=0 charge_b=0 selection_a=1-6 selection_b=7-18 scaling=1.5 benchmark_Eint=-0.969 benchmark_unit=kcal/mol group=noHB
  H    3.703820926   0.300366859   0.659910124
  H    1.925607895   0.238869242   1.157328185
  H    1.416831345  -1.096123679  -0.836875030
  H    3.186891392  -1.036688081  -1.339039081
  C    2.696851210  -0.036689904   0.451208874
  C    2.422139085  -0.756328923  -0.626732112
  C   -1.778293653   2.033876684  -0.683754934
  H   -2.239696334   2.012667453  -1.669551566
  H   -2.132531258   2.904084554  -0.136835745
  H   -0.699560122   2.128538593  -0.802344065
  C   -2.054621020   0.794923893   0.137935860
  O   -1.784830951   0.728784220   1.325770970
  N   -2.598169617  -0.255682561  -0.529758957
  H   -2.788503717  -0.167216946  -1.510070687
  C   -2.850185731  -1.522276131   0.131130740
  H   -3.478936050  -1.376163522   1.007375891
  H   -1.920305664  -1.985694894   0.461632473
  H   -3.353606224  -2.188368192  -0.564157809
