12
charge=0 charge_a=0 charge_b=0 selection_a=1-5 selection_b=6-12 scaling=2.0 benchmark_Eint=-0.067 benchmark_unit=kcal/mol group=noHB
  C   -2.603371942   0.065605317  -0.035860983
  H   -1.826877800   0.705772037   0.374219037
  H   -2.376881939  -0.159376136  -1.076087797
  H   -3.563198772   0.573524391   0.019339925
  H   -2.653046117  -0.860354137   0.532806634
  H    4.487693071  -1.967008421   0.207139027
  H    2.873161554  -1.820942818  -0.459579582
  H    3.181105471  -1.272022790   1.209643026
  H    4.372653561   0.023416537  -1.348435542
  C    3.592816482  -1.340868826   0.206858735
  C    3.934222827   0.016970614  -0.329322074
  O    3.763156623   1.050992661   0.260740641
