19
charge=0 charge_a=0 charge_b=0 selection_a=1-6 selection_b=7-19 scaling=0.85 benchmark_Eint=-1.028 benchmark_unit=kcal/mol group=noHB
  H    1.322144456  -0.000000000   0.918332523
  H    2.968992205  -0.000000000   1.755674810
  H    4.089017748   0.000000000  -0.431781744
  H    2.453468422   0.000000000  -1.270748221
  C    2.401859160  -0.000000000   0.833695981
  C    3.010669850   0.000000000  -0.342953593
  H   -1.313050104   1.287740788  -1.426121585
  H   -0.570550169   2.081136567  -0.022599154
  H    0.441320641   1.202890479  -1.168207141
  H    0.441320641  -1.202890479  -1.168207141
  H   -1.313050104  -1.287740788  -1.426121585
  H   -0.570550169  -2.081136567  -0.022599154
  H   -2.785450237  -0.000000000   0.265975897
  H   -1.928287921  -0.882725919   1.544360405
  C   -0.522699399   1.200589410  -0.661822781
  N   -0.654510229  -0.000000000   0.143107679
  C   -0.522699399  -1.200589410  -0.661822781
  C   -1.887990360  -0.000000000   0.907442301
  H   -1.928287921   0.882725919   1.544360405
