13
charge=0 charge_a=0 charge_b=0 selection_a=1-4 selection_b=5-13 scaling=1.25 benchmark_Eint=-1.464 benchmark_unit=kcal/mol group=noHB
  C    2.373968967   0.260873410   0.000000000
  H    1.346633224   0.533549146   0.000000000
  C    3.530326310  -0.044469118   0.000000000
  H    4.555911182  -0.316694926   0.000000000
  H   -2.089763922   1.750333844   1.369176573
  H   -2.089763922   1.750333844  -1.369176573
  H   -1.689589185  -0.870375542   2.046772401
  H   -1.689589185  -0.870375542  -2.046772401
  C   -1.962830818   0.905561167  -0.716477434
  C   -1.962830818   0.905561167   0.716477434
  C   -1.768053969  -0.381488442   1.094252602
  O   -1.647440487  -1.180906414   0.000000000
  C   -1.768053969  -0.381488442  -1.094252602
