9
charge=0 charge_a=0 charge_b=0 selection_a=1-6 selection_b=7-9 scaling=0.95 benchmark_Eint=-2.389 benchmark_unit=kcal/mol group=noHB
  H   -1.131281380   1.231617804   0.908822792
  H   -1.467846623   1.231614920  -0.900408833
  H   -1.467846623  -1.231614920  -0.900408833
  H   -1.131281380  -1.231617804   0.908822792
  C   -1.297310021   0.662969801   0.003855190
  C   -1.297310021  -0.662969801   0.003855190
  O    1.931012619   0.000000000   0.049864403
  H    2.272521619   0.000000000  -0.847045446
  H    0.971885068   0.000000000  -0.046494240
