17
charge=0 charge_a=0 charge_b=0 selection_a=1-6 selection_b=7-17 scaling=2.0 benchmark_Eint=-0.215 benchmark_unit=kcal/mol group=noHB
  H   -2.393608658  -1.079283453  -0.000000000
  H   -4.089394920  -0.348731589  -0.000000000
  H   -3.108512908   1.907742281   0.000000000
  H   -1.421114751   1.171193523   0.000000000
  C   -3.018073539  -0.196392641  -0.000000000
  C   -2.491589285   1.018755217   0.000000000
  H    4.234495860   0.490762823   2.146607049
  H    2.941509457  -1.623784799   2.052296941
  C    4.343418526   0.660123228   0.000000000
  C    3.973761672   0.055554900   1.192996603
  C    3.250906412  -1.129857228   1.139544075
  N    2.892390073  -1.720256397   0.000000000
  C    3.250906412  -1.129857228  -1.139544075
  C    3.973761672   0.055554900  -1.192996603
  H    2.941509457  -1.623784799  -2.052296941
  H    4.234495860   0.490762823  -2.146607049
  H    4.904553957   1.583932443   0.000000000
