9
charge=0 charge_a=0 charge_b=0 selection_a=1-6 selection_b=7-9 scaling=1.5 benchmark_Eint=-0.919 benchmark_unit=kcal/mol group=noHB
  H   -1.131281380   1.231617804   0.908822792
  H   -1.467846623   1.231614920  -0.900408833
  H   -1.467846623  -1.231614920  -0.900408833
  H   -1.131281380  -1.231617804   0.908822792
  C   -1.297310021   0.662969801   0.003855190
  C   -1.297310021  -0.662969801   0.003855190
  O    3.297227734   0.000000000   0.045752232
  H    3.638736734   0.000000000  -0.851157617
  H    2.338100183   0.000000000  -0.050606411
