10
charge=0 charge_a=0 charge_b=0 selection_a=1-4 selection_b=5-10 scaling=1.0 benchmark_Eint=-2.775 benchmark_unit=kcal/mol group=noHB
  C   -1.856770909   0.599672070   0.000000000
  H   -1.128506429   1.373951790   0.000000000
  C   -2.663395914  -0.283498622   0.000000000
  H   -3.390961655  -1.056242052   0.000000000
  H    1.644338253  -1.750732530  -0.886967497
  H    0.135291530  -1.444390978   0.000000000
  H    1.644338253  -1.750732530   0.886967497
  C    1.668165952   1.247904872   0.000000000
  N    1.484466207   0.099811269   0.000000000
  C    1.212768031  -1.292082243   0.000000000
