19
charge=0 charge_a=0 charge_b=0 selection_a=1-6 selection_b=7-19 scaling=0.95 benchmark_Eint=-2.254 benchmark_unit=kcal/mol group=noHB
  H    1.322144456  -0.000000000   0.918332523
  H    2.968992205  -0.000000000   1.755674810
  H    4.089017748   0.000000000  -0.431781744
  H    2.453468422   0.000000000  -1.270748221
  C    2.401859160  -0.000000000   0.833695981
  C    3.010669850   0.000000000  -0.342953593
  H   -1.560339953   1.287740788  -1.448507424
  H   -0.817840018   2.081136567  -0.044984993
  H    0.194030792   1.202890479  -1.190592980
  H    0.194030792  -1.202890479  -1.190592980
  H   -1.560339953  -1.287740788  -1.448507424
  H   -0.817840018  -2.081136567  -0.044984993
  H   -3.032740086  -0.000000000   0.243590058
  H   -2.175577770  -0.882725919   1.521974566
  C   -0.769989248   1.200589410  -0.684208620
  N   -0.901800078  -0.000000000   0.120721840
  C   -0.769989248  -1.200589410  -0.684208620
  C   -2.135280209  -0.000000000   0.885056462
  H   -2.175577770   0.882725919   1.521974566
