14
charge=0 charge_a=0 charge_b=0 selection_a=1-5 selection_b=6-14 scaling=1.5 benchmark_Eint=-0.378 benchmark_unit=kcal/mol group=noHB
  C    2.807306399   0.063457924   0.148689798
  H    2.120411074   0.309414503  -0.656811096
  H    2.310370728   0.209592917   1.105573044
  H    3.123106778  -0.973738121   0.058384956
  H    3.680657993   0.709359655   0.096114375
  H   -2.550081475   0.437191776   1.793787495
  H   -2.393894999   1.796650108   0.735733420
  H   -2.525757143  -2.024120338  -0.723551947
  H   -2.560779508  -1.759427889   1.034091029
  H   -1.022862787  -1.784396399   0.158964888
  O   -1.917796666   0.447694483  -1.302972302
  C   -2.124776674  -0.002097096  -0.193169577
  N   -2.396236721   0.801332320   0.873249787
  C   -2.069285035  -1.485827565   0.102284762
