14
charge=0 charge_a=0 charge_b=0 selection_a=1-5 selection_b=6-14 scaling=0.9 benchmark_Eint=-1.176 benchmark_unit=kcal/mol group=noHB
  C    2.807306399   0.063457924   0.148689798
  H    2.120411074   0.309414503  -0.656811096
  H    2.310370728   0.209592917   1.105573044
  H    3.123106778  -0.973738121   0.058384956
  H    3.680657993   0.709359655   0.096114375
  H   -0.910180503   0.474285858   1.880946991
  H   -0.753994027   1.833744190   0.822892916
  H   -0.885856171  -1.987026256  -0.636392451
  H   -0.920878536  -1.722333807   1.121250525
  H    0.617038185  -1.747302317   0.246124384
  O   -0.277895694   0.484788565  -1.215812806
  C   -0.484875702   0.034996986  -0.106010081
  N   -0.756335749   0.838426402   0.960409283
  C   -0.429384063  -1.448733483   0.189444258
