12
charge=0 charge_a=0 charge_b=0 selection_a=1-5 selection_b=6-12 scaling=0.95 benchmark_Eint=-1.142 benchmark_unit=kcal/mol group=noHB
  C   -2.603371942   0.065605317  -0.035860983
  H   -1.826877800   0.705772037   0.374219037
  H   -2.376881939  -0.159376136  -1.076087797
  H   -3.563198772   0.573524391   0.019339925
  H   -2.653046117  -0.860354137   0.532806634
  H    1.535106485  -1.892817965   0.166026767
  H   -0.079425032  -1.746752362  -0.500691842
  H    0.228518885  -1.197832334   1.168530766
  H    1.420066975   0.097606993  -1.389547802
  C    0.640229896  -1.266678370   0.165746475
  C    0.981636241   0.091161070  -0.370434334
  O    0.810570037   1.125183117   0.219628381
