19
charge=0 charge_a=0 charge_b=0 selection_a=1-6 selection_b=7-19 scaling=1.05 benchmark_Eint=-2.320 benchmark_unit=kcal/mol group=noHB
  H    1.322144456  -0.000000000   0.918332523
  H    2.968992205  -0.000000000   1.755674810
  H    4.089017748   0.000000000  -0.431781744
  H    2.453468422   0.000000000  -1.270748221
  C    2.401859160  -0.000000000   0.833695981
  C    3.010669850   0.000000000  -0.342953593
  H   -1.807629803   1.287740788  -1.470893262
  H   -1.065129868   2.081136567  -0.067370831
  H   -0.053259058   1.202890479  -1.212978818
  H   -0.053259058  -1.202890479  -1.212978818
  H   -1.807629803  -1.287740788  -1.470893262
  H   -1.065129868  -2.081136567  -0.067370831
  H   -3.280029936   0.000000000   0.221204220
  H   -2.422867620  -0.882725919   1.499588728
  C   -1.017279098   1.200589410  -0.706594458
  N   -1.149089928   0.000000000   0.098336002
  C   -1.017279098  -1.200589410  -0.706594458
  C   -2.382570059   0.000000000   0.862670624
  H   -2.422867620   0.882725919   1.499588728
