13
charge=0 charge_a=0 charge_b=0 selection_a=1-4 selection_b=5-13 scaling=0.8 benchmark_Eint=0.525 benchmark_unit=kcal/mol group=noHB
  C    2.373968967   0.260873410   0.000000000
  H    1.346633224   0.533549146   0.000000000
  C    3.530326310  -0.044469118   0.000000000
  H    4.555911182  -0.316694926   0.000000000
  H   -0.854038695   1.795633989   1.369176573
  H   -0.854038695   1.795633989  -1.369176573
  H   -0.453863958  -0.825075397   2.046772401
  H   -0.453863958  -0.825075397  -2.046772401
  C   -0.727105591   0.950861312  -0.716477434
  C   -0.727105591   0.950861312   0.716477434
  C   -0.532328742  -0.336188297   1.094252602
  O   -0.411715260  -1.135606269   0.000000000
  C   -0.532328742  -0.336188297  -1.094252602
