11
charge=0 charge_a=0 charge_b=0 selection_a=1-4 selection_b=5-11 scaling=1.5 benchmark_Eint=-1.530 benchmark_unit=kcal/mol group=noHB
  C   -2.205477915   0.506140854   0.012343440
  H   -1.497307390   1.296619202   0.100808759
  C   -2.984113541  -0.396778057  -0.089862365
  H   -3.687969051  -1.185846829  -0.181470218
  H    2.341764558  -1.581861140   1.394653498
  H    1.081057034  -1.534793696   0.124573832
  H    2.539671527  -2.551662926  -0.093530583
  C    2.143147724  -1.636097818   0.327560860
  O    2.870619292  -0.563490477  -0.349619739
  C    2.504520915   0.626093447  -0.046274241
  N    2.190328793   1.709119913   0.203672148
