13
charge=0 charge_a=0 charge_b=0 selection_a=1-4 selection_b=5-13 scaling=1.5 benchmark_Eint=-0.736 benchmark_unit=kcal/mol group=noHB
  C    2.373968967   0.260873410   0.000000000
  H    1.346633224   0.533549146   0.000000000
  C    3.530326310  -0.044469118   0.000000000
  H    4.555911182  -0.316694926   0.000000000
  H   -2.776277937   1.725167097   1.369176573
  H   -2.776277937   1.725167097  -1.369176573
  H   -2.376103200  -0.895542289   2.046772401
  H   -2.376103200  -0.895542289  -2.046772401
  C   -2.649344833   0.880394420  -0.716477434
  C   -2.649344833   0.880394420   0.716477434
  C   -2.454567984  -0.406655189   1.094252602
  O   -2.333954502  -1.206073161   0.000000000
  C   -2.454567984  -0.406655189  -1.094252602
