19
charge=0 charge_a=0 charge_b=0 selection_a=1-6 selection_b=7-19 scaling=1.5 benchmark_Eint=-1.464 benchmark_unit=kcal/mol group=noHB
  H    3.248284671  -1.180119597  -1.232706471
  H    4.063172067   0.469218733  -1.231786806
  H    4.063172067   0.469218733   1.231786806
  H    3.248284671  -1.180119597   1.232706471
  C    3.653323237  -0.354446731  -0.663106483
  C    3.653323237  -0.354446731   0.663106483
  H   -2.729915765   2.447583680   0.000000000
  H   -4.820500725  -1.303891717   0.000000000
  H   -4.854512324   1.173572952   0.000000000
  H   -0.535218068  -1.217720735   0.000000000
  H    0.407055567   0.881937632   0.000000000
  H   -2.646317456  -2.490310756   0.000000000
  C   -3.895545438  -0.746370077   0.000000000
  C   -3.911664090   0.644733619   0.000000000
  C   -2.728309706   1.367414834   0.000000000
  C   -1.507800040   0.696344124   0.000000000
  C   -1.482918447  -0.697029776   0.000000000
  C   -2.675511228  -1.409613600   0.000000000
  O   -0.374101250   1.450050070   0.000000000
