14
charge=0 charge_a=0 charge_b=0 selection_a=1-5 selection_b=6-14 scaling=2.0 benchmark_Eint=-0.087 benchmark_unit=kcal/mol group=noHB
  C    2.807306399   0.063457924   0.148689798
  H    2.120411074   0.309414503  -0.656811096
  H    2.310370728   0.209592917   1.105573044
  H    3.123106778  -0.973738121   0.058384956
  H    3.680657993   0.709359655   0.096114375
  H   -3.916665618   0.406280040   1.721154581
  H   -3.760479142   1.765738372   0.663100506
  H   -3.892341286  -2.055032074  -0.796184861
  H   -3.927363651  -1.790339625   0.961458115
  H   -2.389446930  -1.815308135   0.086331974
  O   -3.284380809   0.416782747  -1.375605216
  C   -3.491360817  -0.033008832  -0.265802491
  N   -3.762820864   0.770420584   0.800616873
  C   -3.435869178  -1.516739301   0.029651848
