10
charge=0 charge_a=0 charge_b=0 selection_a=1-4 selection_b=5-10 scaling=2.0 benchmark_Eint=-0.326 benchmark_unit=kcal/mol group=noHB
  C   -1.856770909   0.599672070   0.000000000
  H   -1.128506429   1.373951790   0.000000000
  C   -2.663395914  -0.283498622   0.000000000
  H   -3.390961655  -1.056242052   0.000000000
  H    4.437020951  -1.946148960  -0.886967497
  H    2.927974228  -1.639807408   0.000000000
  H    4.437020951  -1.946148960   0.886967497
  C    4.460848650   1.052488442   0.000000000
  N    4.277148905  -0.095605161   0.000000000
  C    4.005450729  -1.487498673   0.000000000
