10
charge=0 charge_a=0 charge_b=0 selection_a=1-4 selection_b=5-10 scaling=1.05 benchmark_Eint=-2.693 benchmark_unit=kcal/mol group=noHB
  C   -1.856770909   0.599672070   0.000000000
  H   -1.128506429   1.373951790   0.000000000
  C   -2.663395914  -0.283498622   0.000000000
  H   -3.390961655  -1.056242052   0.000000000
  H    1.783972388  -1.760503351  -0.886967497
  H    0.274925665  -1.454161799   0.000000000
  H    1.783972388  -1.760503351   0.886967497
  C    1.807800087   1.238134051   0.000000000
  N    1.624100342   0.090040448   0.000000000
  C    1.352402166  -1.301853064   0.000000000
