18
charge=0 charge_a=0 charge_b=0 selection_a=1-6 selection_b=7-18 scaling=1.0 benchmark_Eint=-2.978 benchmark_unit=kcal/mol group=noHB
  H    3.703820926   0.300366859   0.659910124
  H    1.925607895   0.238869242   1.157328185
  H    1.416831345  -1.096123679  -0.836875030
  H    3.186891392  -1.036688081  -1.339039081
  C    2.696851210  -0.036689904   0.451208874
  C    2.422139085  -0.756328923  -0.626732112
  C   -0.544744595   1.842635420  -0.726186647
  H   -1.006147276   1.821426189  -1.711983279
  H   -0.898982200   2.712843290  -0.179267458
  H    0.533988936   1.937297329  -0.844775778
  C   -0.821071962   0.603682629   0.095504147
  O   -0.551281893   0.537542956   1.283339257
  N   -1.364620559  -0.446923825  -0.572190670
  H   -1.554954659  -0.358458210  -1.552502400
  C   -1.616636673  -1.713517395   0.088699027
  H   -2.245386992  -1.567404786   0.964944178
  H   -0.686756606  -2.176936158   0.419200760
  H   -2.120057166  -2.379609456  -0.606589522
