13
charge=0 charge_a=0 charge_b=0 selection_a=1-4 selection_b=5-13 scaling=0.95 benchmark_Eint=-2.283 benchmark_unit=kcal/mol group=noHB
  C    2.373968967   0.260873410   0.000000000
  H    1.346633224   0.533549146   0.000000000
  C    3.530326310  -0.044469118   0.000000000
  H    4.555911182  -0.316694926   0.000000000
  H   -1.265947104   1.780533940   1.369176573
  H   -1.265947104   1.780533940  -1.369176573
  H   -0.865772367  -0.840175446   2.046772401
  H   -0.865772367  -0.840175446  -2.046772401
  C   -1.139014000   0.935761263  -0.716477434
  C   -1.139014000   0.935761263   0.716477434
  C   -0.944237151  -0.351288346   1.094252602
  O   -0.823623669  -1.150706318   0.000000000
  C   -0.944237151  -0.351288346  -1.094252602
