18
charge=0 charge_a=0 charge_b=0 selection_a=1-6 selection_b=7-18 scaling=0.95 benchmark_Eint=-2.880 benchmark_unit=kcal/mol group=noHB
  H    3.703820926   0.300366859   0.659910124
  H    1.925607895   0.238869242   1.157328185
  H    1.416831345  -1.096123679  -0.836875030
  H    3.186891392  -1.036688081  -1.339039081
  C    2.696851210  -0.036689904   0.451208874
  C    2.422139085  -0.756328923  -0.626732112
  C   -0.421389689   1.823511294  -0.730429818
  H   -0.882792370   1.802302063  -1.716226450
  H   -0.775627294   2.693719164  -0.183510629
  H    0.657343842   1.918173203  -0.849018949
  C   -0.697717056   0.584558503   0.091260976
  O   -0.427926987   0.518418830   1.279096086
  N   -1.241265653  -0.466047951  -0.576433841
  H   -1.431599753  -0.377582336  -1.556745571
  C   -1.493281767  -1.732641521   0.084455856
  H   -2.122032086  -1.586528912   0.960701007
  H   -0.563401700  -2.196060284   0.414957589
  H   -1.996702260  -2.398733582  -0.610832693
