18
charge=0 charge_a=0 charge_b=0 selection_a=1-6 selection_b=7-18 scaling=2.0 benchmark_Eint=-0.273 benchmark_unit=kcal/mol group=noHB
  H    3.703820926   0.300366859   0.659910124
  H    1.925607895   0.238869242   1.157328185
  H    1.416831345  -1.096123679  -0.836875030
  H    3.186891392  -1.036688081  -1.339039081
  C    2.696851210  -0.036689904   0.451208874
  C    2.422139085  -0.756328923  -0.626732112
  C   -3.011842711   2.225117948  -0.641323221
  H   -3.473245392   2.203908717  -1.627119853
  H   -3.366080316   3.095325818  -0.094404032
  H   -1.933109180   2.319779857  -0.759912352
  C   -3.288170078   0.986165157   0.180367573
  O   -3.018380009   0.920025484   1.368202683
  N   -3.831718675  -0.064441297  -0.487327244
  H   -4.022052775   0.024024318  -1.467638974
  C   -4.083734789  -1.331034867   0.173562453
  H   -4.712485108  -1.184922258   1.049807604
  H   -3.153854722  -1.794453630   0.504064186
  H   -4.587155282  -1.997126928  -0.521726096
