14
charge=0 charge_a=0 charge_b=0 selection_a=1-5 selection_b=6-14 scaling=0.8 benchmark_Eint=0.759 benchmark_unit=kcal/mol group=noHB
  C    2.807306399   0.063457924   0.148689798
  H    2.120411074   0.309414503  -0.656811096
  H    2.310370728   0.209592917   1.105573044
  H    3.123106778  -0.973738121   0.058384956
  H    3.680657993   0.709359655   0.096114375
  H   -0.636863675   0.480468205   1.895473573
  H   -0.480677199   1.839926537   0.837419498
  H   -0.612539343  -1.980843909  -0.621865869
  H   -0.647561708  -1.716151460   1.135777107
  H    0.890355013  -1.741119970   0.260650966
  O   -0.004578866   0.490970912  -1.201286224
  C   -0.211558874   0.041179333  -0.091483499
  N   -0.483018921   0.844608749   0.974935865
  C   -0.156067235  -1.442551136   0.203970840
