11
charge=0 charge_a=0 charge_b=0 selection_a=1-4 selection_b=5-11 scaling=2.0 benchmark_Eint=-0.563 benchmark_unit=kcal/mol group=noHB
  C   -2.205477915   0.506140854   0.012343440
  H   -1.497307390   1.296619202   0.100808759
  C   -2.984113541  -0.396778057  -0.089862365
  H   -3.687969051  -1.185846829  -0.181470218
  H    3.584190113  -1.608071195   1.413271534
  H    2.323482589  -1.561003751   0.143191868
  H    3.782097082  -2.577872981  -0.074912547
  C    3.385573279  -1.662307873   0.346178896
  O    4.113044847  -0.589700532  -0.331001703
  C    3.746946470   0.599883392  -0.027656205
  N    3.432754348   1.682909858   0.222290184
