14
charge=0 charge_a=0 charge_b=0 selection_a=1-5 selection_b=6-14 scaling=0.95 benchmark_Eint=-1.442 benchmark_unit=kcal/mol group=noHB
  C    2.807306399   0.063457924   0.148689798
  H    2.120411074   0.309414503  -0.656811096
  H    2.310370728   0.209592917   1.105573044
  H    3.123106778  -0.973738121   0.058384956
  H    3.680657993   0.709359655   0.096114375
  H   -1.046838918   0.471194685   1.873683699
  H   -0.890652442   1.830653017   0.815629624
  H   -1.022514586  -1.990117429  -0.643655743
  H   -1.057536951  -1.725424980   1.113987233
  H    0.480379770  -1.750393490   0.238861092
  O   -0.414554109   0.481697392  -1.223076098
  C   -0.621534117   0.031905813  -0.113273373
  N   -0.892994164   0.835335229   0.953145991
  C   -0.566042478  -1.451824656   0.182180966
