19
charge=0 charge_a=0 charge_b=0 selection_a=1-6 selection_b=7-19 scaling=1.1 benchmark_Eint=-2.176 benchmark_unit=kcal/mol group=noHB
  H    1.322144456  -0.000000000   0.918332523
  H    2.968992205  -0.000000000   1.755674810
  H    4.089017748   0.000000000  -0.431781744
  H    2.453468422   0.000000000  -1.270748221
  C    2.401859160  -0.000000000   0.833695981
  C    3.010669850   0.000000000  -0.342953593
  H   -1.931274727   1.287740788  -1.482086182
  H   -1.188774792   2.081136567  -0.078563751
  H   -0.176903982   1.202890479  -1.224171738
  H   -0.176903982  -1.202890479  -1.224171738
  H   -1.931274727  -1.287740788  -1.482086182
  H   -1.188774792  -2.081136567  -0.078563751
  H   -3.403674860   0.000000000   0.210011300
  H   -2.546512544  -0.882725919   1.488395808
  C   -1.140924022   1.200589410  -0.717787378
  N   -1.272734852   0.000000000   0.087143082
  C   -1.140924022  -1.200589410  -0.717787378
  C   -2.506214983   0.000000000   0.851477704
  H   -2.546512544   0.882725919   1.488395808
