18
charge=0 charge_a=0 charge_b=0 selection_a=1-6 selection_b=7-18 scaling=0.9 benchmark_Eint=-2.443 benchmark_unit=kcal/mol group=noHB
  H    3.703820926   0.300366859   0.659910124
  H    1.925607895   0.238869242   1.157328185
  H    1.416831345  -1.096123679  -0.836875030
  H    3.186891392  -1.036688081  -1.339039081
  C    2.696851210  -0.036689904   0.451208874
  C    2.422139085  -0.756328923  -0.626732112
  C   -0.298034783   1.804387167  -0.734672990
  H   -0.759437464   1.783177936  -1.720469622
  H   -0.652272388   2.674595037  -0.187753801
  H    0.780698748   1.899049076  -0.853262121
  C   -0.574362150   0.565434376   0.087017804
  O   -0.304572081   0.499294703   1.274852914
  N   -1.117910747  -0.485172078  -0.580677013
  H   -1.308244847  -0.396706463  -1.560988743
  C   -1.369926861  -1.751765648   0.080212684
  H   -1.998677180  -1.605653039   0.956457835
  H   -0.440046794  -2.215184411   0.410714417
  H   -1.873347354  -2.417857709  -0.615075865
