15
charge=0 charge_a=0 charge_b=0 selection_a=1-5 selection_b=6-15 scaling=0.9 benchmark_Eint=-0.961 benchmark_unit=kcal/mol group=noHB
  C    2.706643382  -0.587974863  -0.009488999
  H    2.117087208  -0.597849034  -0.923031276
  H    3.285789776   0.331523289   0.038829854
  H    3.383087873  -1.439463194  -0.001546052
  H    2.038509569  -0.641410131   0.846311399
  H   -0.323263424  -2.366765671   0.204580641
  H   -1.158536659  -1.577994270  -1.171642222
  H   -1.984685355  -1.831936675   0.400775906
  H   -0.560470102   2.579707034  -0.230517417
  H    0.218344568   1.784586696   1.176936410
  H    1.090522049   1.996470713  -0.374148535
  C   -1.038949603  -1.597932343  -0.088057301
  N   -0.562647730  -0.322173664   0.436841965
  N   -0.365744264   0.524858493  -0.432778023
  C    0.125142929   1.795585696   0.090691552
