11
charge=0 charge_a=0 charge_b=0 selection_a=1-5 selection_b=6-11 scaling=1.05 benchmark_Eint=-1.124 benchmark_unit=kcal/mol group=noHB
  C    2.638128595   0.118839823   0.000000000
  H    3.582006850   0.658435734   0.000000000
  H    1.814793635   0.828343491   0.000000000
  H    2.584315645  -0.505660149  -0.889483776
  H    2.584315645  -0.505660149   0.889483776
  H    0.075264594  -1.548010265   0.000000000
  H   -1.442612708  -1.769017840   0.885033299
  H   -1.442612708  -1.769017840  -0.885033299
  C   -0.989954097  -1.325623112   0.000000000
  C   -1.194032541   0.113401969   0.000000000
  N   -1.348243470   1.251304079   0.000000000
