13
charge=0 charge_a=0 charge_b=0 selection_a=1-5 selection_b=6-13 scaling=1.25 benchmark_Eint=-0.747 benchmark_unit=kcal/mol group=noHB
  C   -2.774196742   0.066691549   0.020256021
  H   -2.988134350  -0.997513755  -0.049870540
  H   -3.708665633   0.622362606   0.004026729
  H   -2.156300318   0.370333887  -0.821000808
  H   -2.249190540   0.271898114   0.950514090
  H    1.587051929   1.578102507   0.904950551
  H    1.300235865  -1.955397699  -0.926650289
  H    2.189647131  -1.860638750   0.615197550
  H    0.438855404  -1.724510701   0.613696683
  O    1.462088528   0.601981572  -1.154315141
  C    1.447767446   0.002487400  -0.112683073
  O    1.527322704   0.630043032   1.085956662
  C    1.338591852  -1.485005849   0.049207668
