15
charge=0 charge_a=0 charge_b=0 selection_a=1-5 selection_b=6-15 scaling=0.8 benchmark_Eint=0.470 benchmark_unit=kcal/mol group=noHB
  C    2.699263677  -0.027250057   0.001494473
  H    1.720449539  -0.045618581  -0.472853032
  H    3.347849607  -0.765838756  -0.464742925
  H    3.142059055   0.960330834  -0.109778771
  H    2.599239536  -0.257132056   1.060530783
  H    0.342526268  -1.302247006   0.932722098
  H   -1.422220915  -1.224616473   0.858533732
  H   -0.505515952  -2.079299411  -0.399936460
  H   -1.042809703   0.024812173  -1.276407545
  H   -0.363990251   2.087546540  -0.400326859
  H    0.429922127   1.255214769   0.932194788
  H   -1.336133730   1.297203204   0.858623025
  C   -0.504423257  -1.207158136   0.251940127
  N   -0.350336013   0.001270328  -0.541297740
  C   -0.421819783   1.217502131   0.251783921
