11
charge=0 charge_a=0 charge_b=0 selection_a=1-5 selection_b=6-11 scaling=0.95 benchmark_Eint=-1.126 benchmark_unit=kcal/mol group=noHB
  C    2.638128595   0.118839823   0.000000000
  H    3.582006850   0.658435734   0.000000000
  H    1.814793635   0.828343491   0.000000000
  H    2.584315645  -0.505660149  -0.889483776
  H    2.584315645  -0.505660149   0.889483776
  H    0.348717240  -1.535695179   0.000000000
  H   -1.169160062  -1.756702754   0.885033299
  H   -1.169160062  -1.756702754  -0.885033299
  C   -0.716501451  -1.313308026   0.000000000
  C   -0.920579895   0.125717055   0.000000000
  N   -1.074790824   1.263619165   0.000000000
