15
charge=0 charge_a=0 charge_b=0 selection_a=1-5 selection_b=6-15 scaling=2.0 benchmark_Eint=-0.079 benchmark_unit=kcal/mol group=noHB
  C    2.733614165   0.000000000   0.000000000
  H    2.101553552  -0.300482483   0.831773844
  H    3.363356412   0.833910942   0.302045609
  H    2.101553552   0.300482483  -0.831773844
  H    3.363356412  -0.833910942  -0.302045609
  H   -4.309022977   1.889459894   0.813917043
  H   -3.476088519   2.488998145  -0.644254062
  H   -2.525808063   1.814184079   0.706521903
  H   -3.476088519  -2.488998145   0.644254062
  H   -4.309022977  -1.889459894  -0.813917043
  H   -2.525808063  -1.814184079  -0.706521903
  C   -3.458968152   1.739633170   0.145434681
  O   -3.552492563   0.504788250  -0.528265696
  O   -3.552492563  -0.504788250   0.528265696
  C   -3.458968152  -1.739633170  -0.145434681
