15
charge=0 charge_a=0 charge_b=0 selection_a=1-5 selection_b=6-15 scaling=1.25 benchmark_Eint=-0.804 benchmark_unit=kcal/mol group=noHB
  C    2.804339386   0.135533940   0.011380387
  H    2.092453971   0.225349579  -0.804746624
  H    2.859840465  -0.902027294   0.332572294
  H    2.487016297   0.757636631   0.845666389
  H    3.785884700   0.461707501  -0.323697915
  H   -2.519722101   1.087501281   1.356959658
  H   -1.797083408   2.042135164   0.037469867
  H   -0.789186408   1.365924271   1.338996704
  H   -1.105196053  -2.182033090   0.006677772
  H   -2.155372972  -1.537533996   1.291754779
  C   -1.655733971   1.192994694   0.698939364
  C   -1.453815055  -0.069675588  -0.107834121
  O   -1.435260140  -0.057456366  -1.316048809
  C   -1.271856118  -1.346976205   0.680041758
  H   -0.427330257  -1.248495243   1.363195507
