11
charge=0 charge_a=0 charge_b=0 selection_a=1-5 selection_b=6-11 scaling=0.8 benchmark_Eint=0.605 benchmark_unit=kcal/mol group=noHB
  C    2.638128595   0.118839823   0.000000000
  H    3.582006850   0.658435734   0.000000000
  H    1.814793635   0.828343491   0.000000000
  H    2.584315645  -0.505660149  -0.889483776
  H    2.584315645  -0.505660149   0.889483776
  H    0.758896207  -1.517222550   0.000000000
  H   -0.758981095  -1.738230125   0.885033299
  H   -0.758981095  -1.738230125  -0.885033299
  C   -0.306322484  -1.294835397   0.000000000
  C   -0.510400928   0.144189684   0.000000000
  N   -0.664611857   1.282091794   0.000000000
