17
charge=0 charge_a=0 charge_b=0 selection_a=1-5 selection_b=6-17 scaling=1.05 benchmark_Eint=-1.809 benchmark_unit=kcal/mol group=noHB
  C   -0.463479935  -2.788943081   0.060755973
  H   -0.106866368  -2.369433731   0.998796201
  H   -1.479831155  -2.450366246  -0.125903909
  H    0.176001131  -2.459311477  -0.754167312
  H   -0.448576251  -3.874355147   0.121620484
  H   -1.757496563   0.062324246   1.376503308
  H   -1.494218112   1.819715328   1.325148151
  H   -2.907233010   1.108340268   0.507157408
  H    2.346830106   0.403909664   1.848507057
  H    2.622180783   1.117708529   0.233723623
  H    2.310201926  -0.621206579   0.386496590
  O   -1.176542893   0.817652196  -0.477952391
  C    0.142557239   0.614167849  -0.493432675
  O    0.759618793   0.460605174  -1.509165815
  O    0.671059817   0.605819299   0.743493021
  C    2.084261807   0.359729355   0.797091624
  C   -1.866001324   0.960091698   0.772872801
