17
charge=0 charge_a=0 charge_b=0 selection_a=1-5 selection_b=6-17 scaling=0.85 benchmark_Eint=-0.721 benchmark_unit=kcal/mol group=noHB
  C   -0.463479935  -2.788943081   0.060755973
  H   -0.106866368  -2.369433731   0.998796201
  H   -1.479831155  -2.450366246  -0.125903909
  H    0.176001131  -2.459311477  -0.754167312
  H   -0.448576251  -3.874355147   0.121620484
  H   -1.850220652  -0.495199929   1.388615731
  H   -1.586942201   1.262191153   1.337260574
  H   -2.999957099   0.550816093   0.519269831
  H    2.254106017  -0.153614511   1.860619480
  H    2.529456694   0.560184354   0.245836046
  H    2.217477837  -1.178730754   0.398609013
  O   -1.269266982   0.260128021  -0.465839968
  C    0.049833150   0.056643674  -0.481320252
  O    0.666894704  -0.096919001  -1.497053392
  O    0.578335728   0.048295124   0.755605444
  C    1.991537718  -0.197794820   0.809204047
  C   -1.958725413   0.402567523   0.784985224
