13
charge=0 charge_a=0 charge_b=0 selection_a=1-5 selection_b=6-13 scaling=1.5 benchmark_Eint=-0.318 benchmark_unit=kcal/mol group=noHB
  C   -2.774196742   0.066691549   0.020256021
  H   -2.988134350  -0.997513755  -0.049870540
  H   -3.708665633   0.622362606   0.004026729
  H   -2.156300318   0.370333887  -0.821000808
  H   -2.249190540   0.271898114   0.950514090
  H    2.292174784   1.561148477   0.899760441
  H    2.005358720  -1.972351729  -0.931840399
  H    2.894769986  -1.877592780   0.610007440
  H    1.143978259  -1.741464731   0.608506573
  O    2.167211383   0.585027542  -1.159505251
  C    2.152890301  -0.014466630  -0.117873183
  O    2.232445559   0.613089002   1.080766552
  C    2.043714707  -1.501959879   0.044017558
