15
charge=0 charge_a=0 charge_b=0 selection_a=1-5 selection_b=6-15 scaling=0.95 benchmark_Eint=-1.223 benchmark_unit=kcal/mol group=noHB
  C    2.706643382  -0.587974863  -0.009488999
  H    2.117087208  -0.597849034  -0.923031276
  H    3.285789776   0.331523289   0.038829854
  H    3.383087873  -1.439463194  -0.001546052
  H    2.038509569  -0.641410131   0.846311399
  H   -0.467026373  -2.335549641   0.205089612
  H   -1.302299608  -1.546778240  -1.171133251
  H   -2.128448304  -1.800720645   0.401284877
  H   -0.704233051   2.610923064  -0.230008446
  H    0.074581619   1.815802726   1.177445381
  H    0.946759100   2.027686743  -0.373639564
  C   -1.182712552  -1.566716313  -0.087548330
  N   -0.706410679  -0.290957634   0.437350936
  N   -0.509507213   0.556074523  -0.432269052
  C   -0.018620020   1.826801726   0.091200523
