17
charge=0 charge_a=0 charge_b=0 selection_a=1-5 selection_b=6-17 scaling=1.25 benchmark_Eint=-1.034 benchmark_unit=kcal/mol group=noHB
  C   -0.463479935  -2.788943081   0.060755973
  H   -0.106866368  -2.369433731   0.998796201
  H   -1.479831155  -2.450366246  -0.125903909
  H    0.176001131  -2.459311477  -0.754167312
  H   -0.448576251  -3.874355147   0.121620484
  H   -1.664772473   0.619848420   1.364390886
  H   -1.401494022   2.377239502   1.313035729
  H   -2.814508920   1.665864442   0.495044986
  H    2.439554196   0.961433838   1.836394635
  H    2.714904873   1.675232703   0.221611201
  H    2.402926016  -0.063682405   0.374384168
  O   -1.083818803   1.375176370  -0.490064813
  C    0.235281329   1.171692023  -0.505545097
  O    0.852342883   1.018129348  -1.521278237
  O    0.763783907   1.163343473   0.731380599
  C    2.176985897   0.917253529   0.784979202
  C   -1.773277234   1.517615872   0.760760379
