9
charge=0 charge_a=0 charge_b=0 selection_a=1-5 selection_b=6-9 scaling=1.0 benchmark_Eint=-0.760 benchmark_unit=kcal/mol group=noHB
  C   -2.005496180  -0.000000036   0.000000078
  H   -2.372892730  -0.523276936  -0.880612388
  H   -0.917696855  -0.000000175   0.000000683
  H   -2.372892965   1.024271103  -0.012865137
  H   -2.372893602  -0.500994273   0.893477144
  N    1.823825026  -0.000000146   0.000000247
  H    2.196473059   0.460253929  -0.820807747
  H    2.196480789   0.480713409   0.808992290
  H    2.196481050  -0.940964597   0.011810790
