15
charge=0 charge_a=0 charge_b=0 selection_a=1-5 selection_b=6-15 scaling=0.85 benchmark_Eint=-0.472 benchmark_unit=kcal/mol group=noHB
  C    2.804339386   0.135533940   0.011380387
  H    2.092453971   0.225349579  -0.804746624
  H    2.859840465  -0.902027294   0.332572294
  H    2.487016297   0.757636631   0.845666389
  H    3.785884700   0.461707501  -0.323697915
  H   -1.432809147   1.140035566   1.361473749
  H   -0.710170454   2.094669449   0.041983958
  H    0.297726546   1.418458556   1.343510795
  H   -0.018283099  -2.129498805   0.011191863
  H   -1.068460018  -1.484999711   1.296268870
  C   -0.568821017   1.245528979   0.703453455
  C   -0.366902101  -0.017141303  -0.103320030
  O   -0.348347186  -0.004922081  -1.311534718
  C   -0.184943164  -1.294441920   0.684555849
  H    0.659582697  -1.195960958   1.367709598
