13
charge=0 charge_a=0 charge_b=0 selection_a=1-5 selection_b=6-13 scaling=0.9 benchmark_Eint=-1.079 benchmark_unit=kcal/mol group=noHB
  C   -2.774196742   0.066691549   0.020256021
  H   -2.988134350  -0.997513755  -0.049870540
  H   -3.708665633   0.622362606   0.004026729
  H   -2.156300318   0.370333887  -0.821000808
  H   -2.249190540   0.271898114   0.950514090
  H    0.599879931   1.601838148   0.912216705
  H    0.313063867  -1.931662058  -0.919384135
  H    1.202475133  -1.836903109   0.622463704
  H   -0.548316594  -1.700775060   0.620962837
  O    0.474916530   0.625717213  -1.147048987
  C    0.460595448   0.026223041  -0.105416919
  O    0.540150706   0.653778673   1.093222816
  C    0.351419854  -1.461270208   0.056473822
