15
charge=0 charge_a=0 charge_b=0 selection_a=1-5 selection_b=6-15 scaling=0.9 benchmark_Eint=-1.076 benchmark_unit=kcal/mol group=noHB
  C    2.804339386   0.135533940   0.011380387
  H    2.092453971   0.225349579  -0.804746624
  H    2.859840465  -0.902027294   0.332572294
  H    2.487016297   0.757636631   0.845666389
  H    3.785884700   0.461707501  -0.323697915
  H   -1.568673267   1.133468780   1.360909488
  H   -0.846034574   2.088102663   0.041419697
  H    0.161862426   1.411891770   1.342946534
  H   -0.154147219  -2.136065591   0.010627602
  H   -1.204324138  -1.491566497   1.295704609
  C   -0.704685137   1.238962193   0.702889194
  C   -0.502766221  -0.023708089  -0.103884291
  O   -0.484211306  -0.011488867  -1.312098979
  C   -0.320807284  -1.301008706   0.683991588
  H    0.523718577  -1.202527744   1.367145337
