15
charge=0 charge_a=0 charge_b=0 selection_a=1-5 selection_b=6-15 scaling=1.1 benchmark_Eint=-1.394 benchmark_unit=kcal/mol group=noHB
  C    2.699263677  -0.027250057   0.001494473
  H    1.720449539  -0.045618581  -0.472853032
  H    3.347849607  -0.765838756  -0.464742925
  H    3.142059055   0.960330834  -0.109778771
  H    2.599239536  -0.257132056   1.060530783
  H   -0.434508283  -1.294418257   0.932162220
  H   -2.199255466  -1.216787724   0.857973854
  H   -1.282550503  -2.071470662  -0.400496338
  H   -1.819844254   0.032640922  -1.276967423
  H   -1.141024802   2.095375289  -0.400886737
  H   -0.347112424   1.263043518   0.931634910
  H   -2.113168281   1.305031953   0.858063147
  C   -1.281457808  -1.199329387   0.251380249
  N   -1.127370564   0.009099077  -0.541857618
  C   -1.198854334   1.225330880   0.251224043
