11
charge=0 charge_a=0 charge_b=0 selection_a=1-5 selection_b=6-11 scaling=2.0 benchmark_Eint=-0.079 benchmark_unit=kcal/mol group=noHB
  C    2.638128595   0.118839823   0.000000000
  H    3.582006850   0.658435734   0.000000000
  H    1.814793635   0.828343491   0.000000000
  H    2.584315645  -0.505660149  -0.889483776
  H    2.584315645  -0.505660149   0.889483776
  H   -2.522535535  -1.665003583   0.000000000
  H   -4.040412837  -1.886011158   0.885033299
  H   -4.040412837  -1.886011158  -0.885033299
  C   -3.587754226  -1.442616430   0.000000000
  C   -3.791832670  -0.003591349   0.000000000
  N   -3.946043599   1.134310761   0.000000000
