15
charge=0 charge_a=0 charge_b=0 selection_a=1-5 selection_b=6-15 scaling=1.25 benchmark_Eint=-0.961 benchmark_unit=kcal/mol group=noHB
  C    2.699263677  -0.027250057   0.001494473
  H    1.720449539  -0.045618581  -0.472853032
  H    3.347849607  -0.765838756  -0.464742925
  H    3.142059055   0.960330834  -0.109778771
  H    2.599239536  -0.257132056   1.060530783
  H   -0.823025558  -1.290503883   0.931882281
  H   -2.587772741  -1.212873350   0.857693915
  H   -1.671067778  -2.067556288  -0.400776277
  H   -2.208361529   0.036555296  -1.277247362
  H   -1.529542077   2.099289663  -0.401166676
  H   -0.735629699   1.266957892   0.931354971
  H   -2.501685556   1.308946327   0.857783208
  C   -1.669975083  -1.195415013   0.251100310
  N   -1.515887839   0.013013451  -0.542137557
  C   -1.587371609   1.229245254   0.250944104
