9
charge=0 charge_a=0 charge_b=0 selection_a=1-5 selection_b=6-9 scaling=1.25 benchmark_Eint=-0.493 benchmark_unit=kcal/mol group=noHB
  C   -2.005496180  -0.000000036   0.000000078
  H   -2.372892730  -0.523276936  -0.880612388
  H   -0.917696855  -0.000000175   0.000000683
  H   -2.372892965   1.024271103  -0.012865137
  H   -2.372893602  -0.500994273   0.893477144
  N    2.509205496  -0.000000131   0.000000221
  H    2.881853529   0.460253944  -0.820807773
  H    2.881861259   0.480713424   0.808992264
  H    2.881861520  -0.940964582   0.011810764
