15
charge=0 charge_a=0 charge_b=0 selection_a=1-5 selection_b=6-15 scaling=0.85 benchmark_Eint=-0.316 benchmark_unit=kcal/mol group=noHB
  C    2.706643382  -0.587974863  -0.009488999
  H    2.117087208  -0.597849034  -0.923031276
  H    3.285789776   0.331523289   0.038829854
  H    3.383087873  -1.439463194  -0.001546052
  H    2.038509569  -0.641410131   0.846311399
  H   -0.179500474  -2.397981701   0.204071671
  H   -1.014773709  -1.609210300  -1.172151192
  H   -1.840922405  -1.863152705   0.400266936
  H   -0.416707152   2.548491004  -0.231026387
  H    0.362107518   1.753370666   1.176427440
  H    1.234284999   1.965254683  -0.374657505
  C   -0.895186653  -1.629148373  -0.088566271
  N   -0.418884780  -0.353389694   0.436332995
  N   -0.221981314   0.493642463  -0.433286993
  C    0.268905879   1.764369666   0.090182582
