15
charge=0 charge_a=0 charge_b=0 selection_a=1-5 selection_b=6-15 scaling=2.0 benchmark_Eint=-0.066 benchmark_unit=kcal/mol group=noHB
  C    2.706643382  -0.587974863  -0.009488999
  H    2.117087208  -0.597849034  -0.923031276
  H    3.285789776   0.331523289   0.038829854
  H    3.383087873  -1.439463194  -0.001546052
  H    2.038509569  -0.641410131   0.846311399
  H   -3.486048315  -1.680013010   0.215777999
  H   -4.321321550  -0.891241609  -1.160444864
  H   -5.147470246  -1.145184014   0.411973264
  H   -3.723254993   3.266459695  -0.219320059
  H   -2.944440323   2.471339357   1.188133768
  H   -2.072262842   2.683223374  -0.362951177
  C   -4.201734494  -0.911179682  -0.076859943
  N   -3.725432621   0.364578997   0.448039323
  N   -3.528529155   1.211611154  -0.421580665
  C   -3.037641962   2.482338357   0.101888910
