15
charge=0 charge_a=0 charge_b=0 selection_a=1-5 selection_b=6-15 scaling=1.0 benchmark_Eint=-1.567 benchmark_unit=kcal/mol group=noHB
  C    2.699263677  -0.027250057   0.001494473
  H    1.720449539  -0.045618581  -0.472853032
  H    3.347849607  -0.765838756  -0.464742925
  H    3.142059055   0.960330834  -0.109778771
  H    2.599239536  -0.257132056   1.060530783
  H   -0.175496766  -1.297027840   0.932348846
  H   -1.940243949  -1.219397307   0.858160480
  H   -1.023538986  -2.074080245  -0.400309712
  H   -1.560832737   0.030031339  -1.276780797
  H   -0.882013285   2.092765706  -0.400700111
  H   -0.088100907   1.260433935   0.931821536
  H   -1.854156764   1.302422370   0.858249773
  C   -1.022446291  -1.201938970   0.251566875
  N   -0.868359047   0.006489494  -0.541670992
  C   -0.939842817   1.222721297   0.251410669
