13
charge=0 charge_a=0 charge_b=0 selection_a=1-5 selection_b=6-13 scaling=1.0 benchmark_Eint=-1.370 benchmark_unit=kcal/mol group=noHB
  C   -2.774196742   0.066691549   0.020256021
  H   -2.988134350  -0.997513755  -0.049870540
  H   -3.708665633   0.622362606   0.004026729
  H   -2.156300318   0.370333887  -0.821000808
  H   -2.249190540   0.271898114   0.950514090
  H    0.881929073   1.595056536   0.910140661
  H    0.595113009  -1.938443670  -0.921460179
  H    1.484524275  -1.843684721   0.620387660
  H   -0.266267452  -1.707556672   0.618886793
  O    0.756965672   0.618935601  -1.149125031
  C    0.742644590   0.019441429  -0.107492963
  O    0.822199848   0.646997061   1.091146772
  C    0.633468996  -1.468051820   0.054397778
