15
charge=0 charge_a=0 charge_b=0 selection_a=1-5 selection_b=6-15 scaling=1.0 benchmark_Eint=-1.270 benchmark_unit=kcal/mol group=noHB
  C    2.706643382  -0.587974863  -0.009488999
  H    2.117087208  -0.597849034  -0.923031276
  H    3.285789776   0.331523289   0.038829854
  H    3.383087873  -1.439463194  -0.001546052
  H    2.038509569  -0.641410131   0.846311399
  H   -0.610789323  -2.304333611   0.205598583
  H   -1.446062558  -1.515562210  -1.170624280
  H   -2.272211254  -1.769504615   0.401793848
  H   -0.847996001   2.642139094  -0.229499475
  H   -0.069181331   1.847018756   1.177954352
  H    0.802996150   2.058902773  -0.373130593
  C   -1.326475502  -1.535500283  -0.087039359
  N   -0.850173629  -0.259741604   0.437859907
  N   -0.653270163   0.587290553  -0.431760081
  C   -0.162382970   1.858017756   0.091709494
