19
charge=0 charge_a=0 charge_b=0 selection_a=1-5 selection_b=6-19 scaling=1.25 benchmark_Eint=-1.024 benchmark_unit=kcal/mol group=noHB
  C   -1.445900246   2.653552192  -0.045775705
  H   -2.101907349   1.786872265  -0.057197402
  H   -0.413601708   2.316998148  -0.085822176
  H   -1.659504638   3.284592190  -0.905877587
  H   -1.609340131   3.221856331   0.867393279
  H   -0.108130832  -1.380827490   2.160531495
  H    3.291647897   0.097624595   0.013285162
  H    2.130257323  -0.368387404   2.153613625
  H   -0.064361461  -1.498182552  -2.118852420
  H   -1.823570897  -2.490542849   0.867511437
  H    2.174031546  -0.485610128  -2.121628036
  H   -1.806424057  -2.536721672  -0.801982739
  C    2.310458861  -0.353281043   0.015603429
  C    1.656726031  -0.616329289   1.213898719
  C    0.395920272  -1.192446771   1.221696440
  C   -0.241562599  -1.518392311   0.021429142
  C    0.420436549  -1.258259567  -1.181630751
  C    1.681186701  -0.681848030  -1.179620747
  N   -1.539502793  -2.025110415   0.022081905
