15
charge=0 charge_a=0 charge_b=0 selection_a=1-5 selection_b=6-15 scaling=0.8 benchmark_Eint=0.983 benchmark_unit=kcal/mol group=noHB
  C    2.706643382  -0.587974863  -0.009488999
  H    2.117087208  -0.597849034  -0.923031276
  H    3.285789776   0.331523289   0.038829854
  H    3.383087873  -1.439463194  -0.001546052
  H    2.038509569  -0.641410131   0.846311399
  H   -0.035737525  -2.429197731   0.203562700
  H   -0.871010760  -1.640426330  -1.172660163
  H   -1.697159456  -1.894368735   0.399757965
  H   -0.272944203   2.517274974  -0.231535358
  H    0.505870467   1.722154636   1.175918469
  H    1.378047948   1.934038653  -0.375166476
  C   -0.751423704  -1.660364403  -0.089075242
  N   -0.275121831  -0.384605724   0.435824024
  N   -0.078218365   0.462426433  -0.433795964
  C    0.412668828   1.733153636   0.089673611
