15
charge=0 charge_a=0 charge_b=0 selection_a=1-5 selection_b=6-15 scaling=2.0 benchmark_Eint=-0.089 benchmark_unit=kcal/mol group=noHB
  C    2.804339386   0.135533940   0.011380387
  H    2.092453971   0.225349579  -0.804746624
  H    2.859840465  -0.902027294   0.332572294
  H    2.487016297   0.757636631   0.845666389
  H    3.785884700   0.461707501  -0.323697915
  H   -4.557683890   0.988999498   1.348495737
  H   -3.835045197   1.943633381   0.029005946
  H   -2.827148197   1.267422488   1.330532783
  H   -3.143157842  -2.280534873  -0.001786149
  H   -4.193334761  -1.636035779   1.283290858
  C   -3.693695760   1.094492911   0.690475443
  C   -3.491776844  -0.168177371  -0.116298042
  O   -3.473221929  -0.155958149  -1.324512730
  C   -3.309817907  -1.445477988   0.671577837
  H   -2.465292046  -1.346997026   1.354731586
