15
charge=0 charge_a=0 charge_b=0 selection_a=1-5 selection_b=6-15 scaling=0.95 benchmark_Eint=-1.509 benchmark_unit=kcal/mol group=noHB
  C    2.699263677  -0.027250057   0.001494473
  H    1.720449539  -0.045618581  -0.472853032
  H    3.347849607  -0.765838756  -0.464742925
  H    3.142059055   0.960330834  -0.109778771
  H    2.599239536  -0.257132056   1.060530783
  H   -0.045991008  -1.298332631   0.932442159
  H   -1.810738191  -1.220702098   0.858253793
  H   -0.894033228  -2.075385036  -0.400216399
  H   -1.431326979   0.028726548  -1.276687484
  H   -0.752507527   2.091460915  -0.400606798
  H    0.041404851   1.259129144   0.931914849
  H   -1.724651006   1.301117579   0.858343086
  C   -0.892940533  -1.203243761   0.251660188
  N   -0.738853289   0.005184703  -0.541577679
  C   -0.810337059   1.221416506   0.251503982
