19
charge=0 charge_a=0 charge_b=0 selection_a=1-5 selection_b=6-19 scaling=0.8 benchmark_Eint=1.545 benchmark_unit=kcal/mol group=noHB
  C   -1.445900246   2.653552192  -0.045775705
  H   -2.101907349   1.786872265  -0.057197402
  H   -0.413601708   2.316998148  -0.085822176
  H   -1.659504638   3.284592190  -0.905877587
  H   -1.609340131   3.221856331   0.867393279
  H   -0.761593637  -0.181725934   2.139889617
  H    2.638185092   1.296726151  -0.007356716
  H    1.476794518   0.830714152   2.132971747
  H   -0.717824266  -0.299080996  -2.139494298
  H   -2.477033702  -1.291441293   0.846869559
  H    1.520568741   0.713491428  -2.142269914
  H   -2.459886862  -1.337620116  -0.822624617
  C    1.656996056   0.845820513  -0.005038449
  C    1.003263226   0.582772267   1.193256841
  C   -0.257542533   0.006654785   1.201054562
  C   -0.895025404  -0.319290755   0.000787264
  C   -0.233026256  -0.059158011  -1.202272629
  C    1.027723896   0.517253526  -1.200262625
  N   -2.192965598  -0.826008859   0.001440027
