12
charge=0 charge_a=0 charge_b=0 selection_a=1-5 selection_b=6-12 scaling=1.05 benchmark_Eint=-1.179 benchmark_unit=kcal/mol group=noHB
  C    2.416928851  -0.014287792   0.000000000
  H    1.451781317  -0.515687328   0.000000000
  H    3.216470938  -0.752069260   0.000000000
  H    2.505364179   0.609950086  -0.886976555
  H    2.505364179   0.609950086   0.886976555
  N   -1.344385407  -0.714703438   0.000000000
  H   -1.820222664  -1.082902293  -0.812522114
  H   -1.820222664  -1.082902293   0.812522114
  C   -1.363601935   0.748099518   0.000000000
  H   -0.829253881   1.113377405   0.875968396
  H   -2.363066173   1.197866185   0.000000000
  H   -0.829253881   1.113377405  -0.875968396
