11
charge=0 charge_a=0 charge_b=0 selection_a=1-5 selection_b=6-11 scaling=1.1 benchmark_Eint=-0.914 benchmark_unit=kcal/mol group=noHB
  C    2.597862197  -0.041207383  -0.019106708
  H    2.707053998   0.995989708   0.290143529
  H    2.154407162  -0.083133795  -1.011335865
  H    3.576738273  -0.513723253  -0.042457175
  H    1.957571422  -0.567907711   0.683927823
  H   -0.295924148   1.691638141  -0.357848190
  H   -2.007231022   1.792484445   0.032363040
  H   -0.867952682   1.079778105   1.240895270
  C   -1.103913629   1.200369405   0.185103317
  N   -1.331757399  -0.099796145  -0.478602388
  O   -1.218627865  -1.046808945   0.247739546
