11
charge=0 charge_a=0 charge_b=0 selection_a=1-5 selection_b=6-11 scaling=0.95 benchmark_Eint=-1.280 benchmark_unit=kcal/mol group=noHB
  C   -2.342605602  -0.081372113   0.000000000
  H   -2.070275995   0.479722847   0.891876296
  H   -3.417186293  -0.245571387   0.000000000
  H   -2.070275995   0.479722847  -0.891876296
  H   -1.831188130  -1.040900697   0.000000000
  O    0.916458658   0.715383454   0.000000000
  H   -0.039584331   0.795595113   0.000000000
  C    1.255610217  -0.663393924   0.000000000
  H    2.341418642  -0.722487748   0.000000000
  H    0.881585592  -1.178279731  -0.889476966
  H    0.881585592  -1.178279731   0.889476966
