12
charge=0 charge_a=0 charge_b=0 selection_a=1-5 selection_b=6-12 scaling=0.95 benchmark_Eint=-1.464 benchmark_unit=kcal/mol group=noHB
  C    2.690405592  -0.119444051   0.020280636
  H    2.758404145  -0.915372922  -0.718383740
  H    2.284910441   0.775811591  -0.444744354
  H    3.683099455   0.093699161   0.409116102
  H    2.041016112  -0.431028104   0.834775779
  H    0.282824434  -1.663254965  -0.842950741
  H   -1.472387698  -1.528508380  -1.108836461
  H   -0.847567658  -2.495194003   0.236973060
  C   -0.689167102  -1.598986378  -0.352240238
  N   -0.741755249  -0.463806706   0.581501893
  N   -0.589774131   0.644435590   0.085091890
  N   -0.459840612   1.711939582  -0.260189493
