16
charge=0 charge_a=0 charge_b=0 selection_a=1-5 selection_b=6-16 scaling=1.5 benchmark_Eint=-0.398 benchmark_unit=kcal/mol group=noHB
  C    2.845104473  -0.004092186  -0.020575746
  H    3.328605974   0.939572621   0.221753158
  H    2.233849357  -0.324862423   0.819702692
  H    3.605073947  -0.755199748  -0.222674592
  H    2.218077052   0.124424180  -0.899341522
  H   -1.138539548  -1.999708176  -0.481257757
  H   -2.038722598  -2.589104549   0.943740337
  H   -2.909726444  -2.013345543  -0.505600617
  H   -2.727485163   1.766067537   1.460267783
  C   -2.061861719   0.466833893  -0.111483890
  O   -2.049800241  -0.580789057   0.736961355
  C   -2.033739131  -1.878473771   0.124446002
  C   -2.017951637   1.769860197   0.635841539
  O   -2.085122451   0.347347284  -1.308855067
  H   -2.229700711   2.586401710  -0.045854873
  H   -1.021900038   1.902119170   1.058245709
