12
charge=0 charge_a=0 charge_b=0 selection_a=1-5 selection_b=6-12 scaling=1.5 benchmark_Eint=-0.409 benchmark_unit=kcal/mol group=noHB
  C   -2.707500914   0.152700502   0.021221419
  H   -2.255478236  -0.370333848   0.861152317
  H   -3.642717144   0.604174945   0.343003191
  H   -2.033035959   0.929944429  -0.329112565
  H   -2.910480896  -0.550799334  -0.783893846
  H    0.941129717  -1.517374546  -0.918905705
  H    1.882165893  -2.612595980   0.132594700
  H    2.708773470  -1.684139638  -1.151009787
  C    1.895892012  -1.686829706  -0.429538434
  O    2.123813160  -0.642688866   0.560775846
  C    2.174254331   0.553989743   0.097885185
  N    2.223003748   1.642123247  -0.284888660
