16
charge=0 charge_a=0 charge_b=0 selection_a=1-5 selection_b=6-16 scaling=1.1 benchmark_Eint=-1.451 benchmark_unit=kcal/mol group=noHB
  C    2.845104473  -0.004092186  -0.020575746
  H    3.328605974   0.939572621   0.221753158
  H    2.233849357  -0.324862423   0.819702692
  H    3.605073947  -0.755199748  -0.222674592
  H    2.218077052   0.124424180  -0.899341522
  H    0.007255191  -2.001348338  -0.489499084
  H   -0.892927859  -2.590744711   0.935499010
  H   -1.763931705  -2.014985705  -0.513841944
  H   -1.581690424   1.764427375   1.452026456
  C   -0.916066980   0.465193731  -0.119725217
  O   -0.904005502  -0.582429219   0.728720028
  C   -0.887944392  -1.880113933   0.116204675
  C   -0.872156898   1.768220035   0.627600212
  O   -0.939327712   0.345707122  -1.317096394
  H   -1.083905972   2.584761548  -0.054096200
  H    0.123894701   1.900479008   1.050004382
