12
charge=0 charge_a=0 charge_b=0 selection_a=1-5 selection_b=6-12 scaling=0.8 benchmark_Eint=0.669 benchmark_unit=kcal/mol group=noHB
  C    2.690405592  -0.119444051   0.020280636
  H    2.758404145  -0.915372922  -0.718383740
  H    2.284910441   0.775811591  -0.444744354
  H    3.683099455   0.093699161   0.409116102
  H    2.041016112  -0.431028104   0.834775779
  H    0.690045950  -1.681323217  -0.839884878
  H   -1.065166182  -1.546576632  -1.105770598
  H   -0.440346142  -2.513262255   0.240038923
  C   -0.281945586  -1.617054630  -0.349174375
  N   -0.334533733  -0.481874958   0.584567756
  N   -0.182552615   0.626367338   0.088157753
  N   -0.052619096   1.693871330  -0.257123630
