11
charge=0 charge_a=0 charge_b=0 selection_a=1-5 selection_b=6-11 scaling=1.1 benchmark_Eint=-1.006 benchmark_unit=kcal/mol group=noHB
  C   -2.652467755  -0.114408337   0.000000000
  H   -3.578150085  -0.684638837   0.000000000
  H   -2.618545260   0.511555195  -0.889332091
  H   -2.618545260   0.511555195   0.889332091
  H   -1.806967473  -0.797276539   0.000000000
  H    0.062790713   1.460883552   0.000000000
  H    1.580941608   1.696449086  -0.886456565
  H    1.580941608   1.696449086   0.886456565
  C    1.507993142  -1.298170286   0.000000000
  N    1.344453859  -0.146424320   0.000000000
  C    1.130674856   1.254779075   0.000000000
