16
charge=0 charge_a=0 charge_b=0 selection_a=1-5 selection_b=6-16 scaling=1.25 benchmark_Eint=-0.932 benchmark_unit=kcal/mol group=noHB
  C    2.845104473  -0.004092186  -0.020575746
  H    3.328605974   0.939572621   0.221753158
  H    2.233849357  -0.324862423   0.819702692
  H    3.605073947  -0.755199748  -0.222674592
  H    2.218077052   0.124424180  -0.899341522
  H   -0.422417836  -2.000733277  -0.486408586
  H   -1.322600886  -2.590129650   0.938589508
  H   -2.193604732  -2.014370644  -0.510751446
  H   -2.011363451   1.765042436   1.455116954
  C   -1.345740007   0.465808792  -0.116634719
  O   -1.333678529  -0.581814158   0.731810526
  C   -1.317617419  -1.879498872   0.119295173
  C   -1.301829925   1.768835096   0.630690710
  O   -1.369000739   0.346322183  -1.314005896
  H   -1.513578999   2.585376609  -0.051005702
  H   -0.305778326   1.901094069   1.053094880
