11
charge=0 charge_a=0 charge_b=0 selection_a=1-5 selection_b=6-11 scaling=1.05 benchmark_Eint=-1.098 benchmark_unit=kcal/mol group=noHB
  C   -2.652467755  -0.114408337   0.000000000
  H   -3.578150085  -0.684638837   0.000000000
  H   -2.618545260   0.511555195  -0.889332091
  H   -2.618545260   0.511555195   0.889332091
  H   -1.806967473  -0.797276539   0.000000000
  H   -0.073736268   1.454992695   0.000000000
  H    1.444414627   1.690558229  -0.886456565
  H    1.444414627   1.690558229   0.886456565
  C    1.371466161  -1.304061143   0.000000000
  N    1.207926878  -0.152315177   0.000000000
  C    0.994147875   1.248888218   0.000000000
