16
charge=0 charge_a=0 charge_b=0 selection_a=1-5 selection_b=6-16 scaling=1.05 benchmark_Eint=-1.612 benchmark_unit=kcal/mol group=noHB
  C    2.845104473  -0.004092186  -0.020575746
  H    3.328605974   0.939572621   0.221753158
  H    2.233849357  -0.324862423   0.819702692
  H    3.605073947  -0.755199748  -0.222674592
  H    2.218077052   0.124424180  -0.899341522
  H    0.150479534  -2.001553358  -0.490529250
  H   -0.749703516  -2.590949731   0.934468844
  H   -1.620707362  -2.015190725  -0.514872110
  H   -1.438466081   1.764222355   1.450996290
  C   -0.772842637   0.464988711  -0.120755383
  O   -0.760781159  -0.582634239   0.727689862
  C   -0.744720049  -1.880318953   0.115174509
  C   -0.728932555   1.768015015   0.626570046
  O   -0.796103369   0.345502102  -1.318126560
  H   -0.940681629   2.584556528  -0.055126366
  H    0.267119044   1.900273988   1.048974216
