12
charge=0 charge_a=0 charge_b=0 selection_a=1-5 selection_b=6-12 scaling=1.1 benchmark_Eint=-1.086 benchmark_unit=kcal/mol group=noHB
  C    2.416928851  -0.014287792   0.000000000
  H    1.451781317  -0.515687328   0.000000000
  H    3.216470938  -0.752069260   0.000000000
  H    2.505364179   0.609950086  -0.886976555
  H    2.505364179   0.609950086   0.886976555
  N   -1.477890528  -0.713946696   0.000000000
  H   -1.953727785  -1.082145551  -0.812522114
  H   -1.953727785  -1.082145551   0.812522114
  C   -1.497107056   0.748856260   0.000000000
  H   -0.962759002   1.114134147   0.875968396
  H   -2.496571294   1.198622927   0.000000000
  H   -0.962759002   1.114134147  -0.875968396
