12
charge=0 charge_a=0 charge_b=0 selection_a=1-5 selection_b=6-12 scaling=1.1 benchmark_Eint=-1.269 benchmark_unit=kcal/mol group=noHB
  C    2.690405592  -0.119444051   0.020280636
  H    2.758404145  -0.915372922  -0.718383740
  H    2.284910441   0.775811591  -0.444744354
  H    3.683099455   0.093699161   0.409116102
  H    2.041016112  -0.431028104   0.834775779
  H   -0.124397081  -1.645186712  -0.846016603
  H   -1.879609213  -1.510440127  -1.111902323
  H   -1.254789173  -2.477125750   0.233907198
  C   -1.096388617  -1.580918125  -0.355306100
  N   -1.148976764  -0.445738453   0.578436031
  N   -0.996995646   0.662503843   0.082026028
  N   -0.867062127   1.730007835  -0.263255355
