12
charge=0 charge_a=0 charge_b=0 selection_a=1-5 selection_b=6-12 scaling=2.0 benchmark_Eint=-0.082 benchmark_unit=kcal/mol group=noHB
  C    2.690405592  -0.119444051   0.020280636
  H    2.758404145  -0.915372922  -0.718383740
  H    2.284910441   0.775811591  -0.444744354
  H    3.683099455   0.093699161   0.409116102
  H    2.041016112  -0.431028104   0.834775779
  H   -2.567726175  -1.536777198  -0.864411778
  H   -4.322938307  -1.402030613  -1.130297498
  H   -3.698118267  -2.368716236   0.215512023
  C   -3.539717711  -1.472508611  -0.373701275
  N   -3.592305858  -0.337328939   0.560040856
  N   -3.440324740   0.770913357   0.063630853
  N   -3.310391221   1.838417349  -0.281650530
