11
charge=0 charge_a=0 charge_b=0 selection_a=1-5 selection_b=6-11 scaling=1.5 benchmark_Eint=-0.398 benchmark_unit=kcal/mol group=noHB
  C   -2.342605602  -0.081372113   0.000000000
  H   -2.070275995   0.479722847   0.891876296
  H   -3.417186293  -0.245571387   0.000000000
  H   -2.070275995   0.479722847  -0.891876296
  H   -1.831188130  -1.040900697   0.000000000
  O    2.206919833   0.760239531   0.000000000
  H    1.250876844   0.840451190   0.000000000
  C    2.546071392  -0.618537847   0.000000000
  H    3.631879817  -0.677631671   0.000000000
  H    2.172046767  -1.133423654  -0.889476966
  H    2.172046767  -1.133423654   0.889476966
