11
charge=0 charge_a=0 charge_b=0 selection_a=1-5 selection_b=6-11 scaling=0.9 benchmark_Eint=-1.094 benchmark_unit=kcal/mol group=noHB
  C   -2.342605602  -0.081372113   0.000000000
  H   -2.070275995   0.479722847   0.891876296
  H   -3.417186293  -0.245571387   0.000000000
  H   -2.070275995   0.479722847  -0.891876296
  H   -1.831188130  -1.040900697   0.000000000
  O    0.799144005   0.711305629   0.000000000
  H   -0.156898984   0.791517288   0.000000000
  C    1.138295564  -0.667471749   0.000000000
  H    2.224103989  -0.726565573   0.000000000
  H    0.764270939  -1.182357556  -0.889476966
  H    0.764270939  -1.182357556   0.889476966
