16
charge=0 charge_a=0 charge_b=0 selection_a=1-5 selection_b=6-16 scaling=0.8 benchmark_Eint=1.051 benchmark_unit=kcal/mol group=noHB
  C    2.845104473  -0.004092186  -0.020575746
  H    3.328605974   0.939572621   0.221753158
  H    2.233849357  -0.324862423   0.819702692
  H    3.605073947  -0.755199748  -0.222674592
  H    2.218077052   0.124424180  -0.899341522
  H    0.866601246  -2.002578459  -0.495680080
  H   -0.033581804  -2.591974832   0.929318014
  H   -0.904585650  -2.016215826  -0.520022940
  H   -0.722344369   1.763197254   1.445845460
  C   -0.056720925   0.463963610  -0.125906213
  O   -0.044659447  -0.583659340   0.722539032
  C   -0.028598337  -1.881344054   0.110023679
  C   -0.012810843   1.766989914   0.621419216
  O   -0.079981657   0.344477001  -1.323277390
  H   -0.224559917   2.583531427  -0.060277196
  H    0.983240756   1.899248887   1.043823386
