19
charge=0 charge_a=0 charge_b=0 selection_a=1-5 selection_b=6-19 scaling=0.85 benchmark_Eint=-0.485 benchmark_unit=kcal/mol group=noHB
  C    2.900555960  -0.165643203  -0.084671423
  H    2.088627066  -0.314695465  -0.791160502
  H    2.779675039   0.795490844   0.410160543
  H    3.852765692  -0.183512594  -0.609303018
  H    2.885826800  -0.958589271   0.659938222
  H    0.804539850  -0.212518749   1.765548974
  H    0.071033669   1.388939061   1.898512816
  H   -0.933068739  -0.063751030   1.942757482
  H   -0.926400336   2.435676078  -0.269852896
  H    0.561938669  -2.149243181   0.344091329
  H   -1.170802607  -1.983351756   0.628783063
  H   -0.586211202  -2.655196851  -0.896740786
  H    0.809200952   2.268756636  -0.453180807
  H   -0.266921028   1.694618757  -1.746180545
  C   -0.202488606   0.432064071  -0.023114877
  N   -0.354133575  -0.591944025  -0.756585073
  C   -0.391103723  -1.904258748  -0.135198381
  C   -0.145948217   1.785065821  -0.670875625
  C   -0.056572702   0.393542528   1.480870403
