12
charge=0 charge_a=0 charge_b=0 selection_a=1-5 selection_b=6-12 scaling=1.0 benchmark_Eint=-1.505 benchmark_unit=kcal/mol group=noHB
  C   -2.707500914   0.152700502   0.021221419
  H   -2.255478236  -0.370333848   0.861152317
  H   -3.642717144   0.604174945   0.343003191
  H   -2.033035959   0.929944429  -0.329112565
  H   -2.910480896  -0.550799334  -0.783893846
  H   -0.393304651  -1.442066529  -0.908255333
  H    0.547731525  -2.537287963   0.143245072
  H    1.374339102  -1.608831621  -1.140359415
  C    0.561457644  -1.611521689  -0.418888062
  O    0.789378792  -0.567380849   0.571426218
  C    0.839819963   0.629297760   0.108535557
  N    0.888569380   1.717431264  -0.274238288
