11
charge=0 charge_a=0 charge_b=0 selection_a=1-5 selection_b=6-11 scaling=1.25 benchmark_Eint=-0.820 benchmark_unit=kcal/mol group=noHB
  C   -2.342605602  -0.081372113   0.000000000
  H   -2.070275995   0.479722847   0.891876296
  H   -3.417186293  -0.245571387   0.000000000
  H   -2.070275995   0.479722847  -0.891876296
  H   -1.831188130  -1.040900697   0.000000000
  O    1.620346572   0.739850405   0.000000000
  H    0.664303583   0.820062064   0.000000000
  C    1.959498131  -0.638926973   0.000000000
  H    3.045306556  -0.698020797   0.000000000
  H    1.585473506  -1.153812780  -0.889476966
  H    1.585473506  -1.153812780   0.889476966
