19
charge=0 charge_a=0 charge_b=0 selection_a=1-5 selection_b=6-19 scaling=0.95 benchmark_Eint=-1.600 benchmark_unit=kcal/mol group=noHB
  C    2.900555960  -0.165643203  -0.084671423
  H    2.088627066  -0.314695465  -0.791160502
  H    2.779675039   0.795490844   0.410160543
  H    3.852765692  -0.183512594  -0.609303018
  H    2.885826800  -0.958589271   0.659938222
  H    0.519908115  -0.196273622   1.773805648
  H   -0.213598066   1.405184188   1.906769490
  H   -1.217700474  -0.047505903   1.951014156
  H   -1.211032071   2.451921205  -0.261596222
  H    0.277306934  -2.132998054   0.352348003
  H   -1.455434342  -1.967106629   0.637039737
  H   -0.870842937  -2.638951724  -0.888484112
  H    0.524569217   2.285001763  -0.444924133
  H   -0.551552763   1.710863884  -1.737923871
  C   -0.487120341   0.448309198  -0.014858203
  N   -0.638765310  -0.575698898  -0.748328399
  C   -0.675735458  -1.888013621  -0.126941707
  C   -0.430579952   1.801310948  -0.662618951
  C   -0.341204437   0.409787655   1.489127077
