11
charge=0 charge_a=0 charge_b=0 selection_a=1-5 selection_b=6-11 scaling=1.05 benchmark_Eint=-1.020 benchmark_unit=kcal/mol group=noHB
  C    2.597862197  -0.041207383  -0.019106708
  H    2.707053998   0.995989708   0.290143529
  H    2.154407162  -0.083133795  -1.011335865
  H    3.576738273  -0.513723253  -0.042457175
  H    1.957571422  -0.567907711   0.683927823
  H   -0.152437136   1.689348693  -0.358914828
  H   -1.863744010   1.790194997   0.031296402
  H   -0.724465670   1.077488657   1.239828632
  C   -0.960426617   1.198079957   0.184036679
  N   -1.188270387  -0.102085593  -0.479669026
  O   -1.075140853  -1.049098393   0.246672908
