19
charge=0 charge_a=0 charge_b=0 selection_a=1-5 selection_b=6-19 scaling=1.05 benchmark_Eint=-1.597 benchmark_unit=kcal/mol group=noHB
  C    2.900555960  -0.165643203  -0.084671423
  H    2.088627066  -0.314695465  -0.791160502
  H    2.779675039   0.795490844   0.410160543
  H    3.852765692  -0.183512594  -0.609303018
  H    2.885826800  -0.958589271   0.659938222
  H    0.235276381  -0.180028496   1.782062322
  H   -0.498229800   1.421429314   1.915026164
  H   -1.502332208  -0.031260777   1.959270830
  H   -1.495663805   2.468166331  -0.253339548
  H   -0.007324800  -2.116752928   0.360604677
  H   -1.740066076  -1.950861503   0.645296411
  H   -1.155474671  -2.622706598  -0.880227438
  H    0.239937483   2.301246889  -0.436667459
  H   -0.836184497   1.727109010  -1.729667197
  C   -0.771752075   0.464554324  -0.006601529
  N   -0.923397044  -0.559453772  -0.740071725
  C   -0.960367192  -1.871768495  -0.118685033
  C   -0.715211686   1.817556074  -0.654362277
  C   -0.625836171   0.426032781   1.497383751
