12
charge=0 charge_a=0 charge_b=0 selection_a=1-5 selection_b=6-12 scaling=1.05 benchmark_Eint=-1.406 benchmark_unit=kcal/mol group=noHB
  C    2.690405592  -0.119444051   0.020280636
  H    2.758404145  -0.915372922  -0.718383740
  H    2.284910441   0.775811591  -0.444744354
  H    3.683099455   0.093699161   0.409116102
  H    2.041016112  -0.431028104   0.834775779
  H    0.011343424  -1.651209463  -0.844994649
  H   -1.743868708  -1.516462878  -1.110880369
  H   -1.119048668  -2.483148501   0.234929152
  C   -0.960648112  -1.586940876  -0.354284146
  N   -1.013236259  -0.451761204   0.579457985
  N   -0.861255141   0.656481092   0.083047982
  N   -0.731321622   1.723985084  -0.262233401
