11
charge=0 charge_a=0 charge_b=0 selection_a=1-5 selection_b=6-11 scaling=1.0 benchmark_Eint=-1.145 benchmark_unit=kcal/mol group=noHB
  C   -2.652467755  -0.114408337   0.000000000
  H   -3.578150085  -0.684638837   0.000000000
  H   -2.618545260   0.511555195  -0.889332091
  H   -2.618545260   0.511555195   0.889332091
  H   -1.806967473  -0.797276539   0.000000000
  H   -0.210263249   1.449101838   0.000000000
  H    1.307887646   1.684667372  -0.886456565
  H    1.307887646   1.684667372   0.886456565
  C    1.234939180  -1.309952000   0.000000000
  N    1.071399897  -0.158206034   0.000000000
  C    0.857620894   1.242997361   0.000000000
