11
charge=0 charge_a=0 charge_b=0 selection_a=1-5 selection_b=6-11 scaling=1.1 benchmark_Eint=-1.170 benchmark_unit=kcal/mol group=noHB
  C   -2.342605602  -0.081372113   0.000000000
  H   -2.070275995   0.479722847   0.891876296
  H   -3.417186293  -0.245571387   0.000000000
  H   -2.070275995   0.479722847  -0.891876296
  H   -1.831188130  -1.040900697   0.000000000
  O    1.268402615   0.727616929   0.000000000
  H    0.312359626   0.807828588   0.000000000
  C    1.607554174  -0.651160449   0.000000000
  H    2.693362599  -0.710254273   0.000000000
  H    1.233529549  -1.166046256  -0.889476966
  H    1.233529549  -1.166046256   0.889476966
