12
charge=0 charge_a=0 charge_b=0 selection_a=1-5 selection_b=6-12 scaling=1.5 benchmark_Eint=-0.337 benchmark_unit=kcal/mol group=noHB
  C    2.416928851  -0.014287792   0.000000000
  H    1.451781317  -0.515687328   0.000000000
  H    3.216470938  -0.752069260   0.000000000
  H    2.505364179   0.609950086  -0.886976555
  H    2.505364179   0.609950086   0.886976555
  N   -2.545931497  -0.707892756   0.000000000
  H   -3.021768754  -1.076091611  -0.812522114
  H   -3.021768754  -1.076091611   0.812522114
  C   -2.565148025   0.754910200   0.000000000
  H   -2.030799971   1.120188087   0.875968396
  H   -3.564612263   1.204676867   0.000000000
  H   -2.030799971   1.120188087  -0.875968396
