12
charge=0 charge_a=0 charge_b=0 selection_a=1-5 selection_b=6-12 scaling=0.95 benchmark_Eint=-1.161 benchmark_unit=kcal/mol group=noHB
  C    2.416928851  -0.014287792   0.000000000
  H    1.451781317  -0.515687328   0.000000000
  H    3.216470938  -0.752069260   0.000000000
  H    2.505364179   0.609950086  -0.886976555
  H    2.505364179   0.609950086   0.886976555
  N   -1.077375165  -0.716216924   0.000000000
  H   -1.553212422  -1.084415779  -0.812522114
  H   -1.553212422  -1.084415779   0.812522114
  C   -1.096591693   0.746586032   0.000000000
  H   -0.562243639   1.111863919   0.875968396
  H   -2.096055931   1.196352699   0.000000000
  H   -0.562243639   1.111863919  -0.875968396
