11
charge=0 charge_a=0 charge_b=0 selection_a=1-5 selection_b=6-11 scaling=0.95 benchmark_Eint=-1.073 benchmark_unit=kcal/mol group=noHB
  C    2.597862197  -0.041207383  -0.019106708
  H    2.707053998   0.995989708   0.290143529
  H    2.154407162  -0.083133795  -1.011335865
  H    3.576738273  -0.513723253  -0.042457175
  H    1.957571422  -0.567907711   0.683927823
  H    0.134536886   1.684769795  -0.361048104
  H   -1.576769988   1.785616099   0.029163126
  H   -0.437491648   1.072909759   1.237695356
  C   -0.673452595   1.193501059   0.181903403
  N   -0.901296365  -0.106664491  -0.481802302
  O   -0.788166831  -1.053677291   0.244539632
