14
charge=0 charge_a=0 charge_b=0 selection_a=1-7 selection_b=8-14 scaling=1.0 benchmark_Eint=-4.659 benchmark_unit=kcal/mol group=noHB
  N    1.871762033   0.010944710  -0.706875223
  H    1.522027042   0.947132577  -0.865998969
  H    2.663543629  -0.116159045  -1.322913929
  C    2.271285959  -0.158027516   0.692527030
  H    2.645411435  -1.170585875   0.839074166
  H    3.040984390   0.540550238   1.037120471
  H    1.398096211  -0.040423053   1.332403673
  H   -1.286735649  -2.504755246   0.209660157
  H   -0.123264370  -1.571236436  -0.768775243
  H   -1.859258899  -1.578363620  -1.185968163
  C   -1.136455534  -1.599793245  -0.368441307
  N   -1.355823566  -0.470560081   0.553936725
  N   -1.124551954   0.642879436   0.111230510
  N   -0.940243560   1.719399893  -0.183993274
