18
charge=0 charge_a=0 charge_b=0 selection_a=1-5 selection_b=6-18 scaling=1.0 benchmark_Eint=-1.688 benchmark_unit=kcal/mol group=noHB
  C   -1.324505288   2.716270382  -0.189767074
  H   -2.042745031   1.964045044  -0.506325198
  H   -0.318728622   2.333282832  -0.338290148
  H   -1.473934257   2.939228535   0.864269884
  H   -1.465177288   3.622557931  -0.774551405
  H   -0.405687587  -1.009258933  -2.076641843
  H    2.945604085   0.679450062   0.011145524
  H    1.880367797  -0.053402279  -2.101626733
  H   -0.563888318  -0.509655614   2.164189096
  H   -2.251108507  -1.368587726   0.875271846
  H    1.710518303   0.441468177   2.144680800
  C    1.950946768   0.259042660   0.020432277
  C    1.350600610  -0.153506980  -1.164851331
  C    0.072702598  -0.691388395  -1.162084579
  C   -0.615990223  -0.817821814   0.039880614
  C   -0.023009028  -0.412771308   1.231176868
  C    1.257676818   0.124413169   1.215993318
  O   -1.878137968  -1.338344601  -0.009591955
