18
charge=0 charge_a=0 charge_b=0 selection_a=1-5 selection_b=6-18 scaling=0.95 benchmark_Eint=-1.607 benchmark_unit=kcal/mol group=noHB
  C   -1.324505288   2.716270382  -0.189767074
  H   -2.042745031   1.964045044  -0.506325198
  H   -0.318728622   2.333282832  -0.338290148
  H   -1.473934257   2.939228535   0.864269884
  H   -1.465177288   3.622557931  -0.774551405
  H   -0.473406545  -0.870418230  -2.086329626
  H    2.877885127   0.818290765   0.001457741
  H    1.812648839   0.085438424  -2.111314516
  H   -0.631607276  -0.370814911   2.154501313
  H   -2.318827465  -1.229747023   0.865584063
  H    1.642799345   0.580308880   2.134993017
  C    1.883227810   0.397883363   0.010744494
  C    1.282881652  -0.014666277  -1.174539114
  C    0.004983640  -0.552547692  -1.171772362
  C   -0.683709181  -0.678981111   0.030192831
  C   -0.090727986  -0.273930605   1.221489085
  C    1.189957860   0.263253872   1.206305535
  O   -1.945856926  -1.199503898  -0.019279738
