18
charge=0 charge_a=0 charge_b=0 selection_a=1-5 selection_b=6-18 scaling=1.1 benchmark_Eint=-1.406 benchmark_unit=kcal/mol group=noHB
  C    3.056462517   0.000146602  -0.342505166
  H    1.996242681  -0.012981417  -0.585900789
  H    3.588624858  -0.706515427  -0.975708854
  H    3.196862079  -0.278266328   0.700195708
  H    3.457420606   0.998716781  -0.503164167
  H   -2.927460696   0.075441795  -0.367436839
  H   -1.947733097   0.977726692  -1.539858885
  H   -2.000931496  -0.785278467  -1.612123567
  H   -0.803553401  -2.087242354   0.002957780
  H   -1.626410187  -1.324988066   1.378387609
  H    0.143788346  -1.284231866   1.256786310
  H   -1.548458463   1.247723287   1.483865817
  H    0.216438452   1.111009643   1.354375749
  C   -1.983190769   0.070350597  -0.938201047
  N   -0.813001653   0.000042888  -0.083669698
  C   -0.778129348  -1.233517011   0.679025336
  C   -0.705700812   1.162900263   0.777073234
  H   -0.678274743   2.068874968   0.172915305
