16
charge=0 charge_a=0 charge_b=0 selection_a=1-5 selection_b=6-16 scaling=1.5 benchmark_Eint=-0.340 benchmark_unit=kcal/mol group=noHB
  C    2.977538070  -0.194682012  -0.335719972
  H    2.111665543  -0.540764680  -0.894158234
  H    3.510199312  -1.049273532   0.075333251
  H    3.639946144   0.359689824  -0.996696197
  H    2.643688371   0.450093288   0.472642158
  H   -2.320569766  -2.282307051   0.623089677
  H   -1.662767413  -0.736707160   2.447911234
  C   -2.456404570  -0.697915803  -0.832496554
  C   -2.222679078  -1.224008564   0.429846424
  C   -1.854485889  -0.357367371   1.451588699
  N   -1.712854337   0.956927800   1.284932119
  C   -1.938372703   1.450599006   0.068139095
  C   -2.310559317   0.669191473  -1.018887909
  H   -1.814100703   2.520723158  -0.044635638
  H   -2.479015335   1.124598125  -1.983860322
  H   -2.743535976  -1.339580383  -1.653585847
