19
charge=0 charge_a=0 charge_b=0 selection_a=1-12 selection_b=13-19 scaling=0.85 benchmark_Eint=-4.311 benchmark_unit=kcal/mol group=noHB
  C   -1.037875743  -1.848537083  -0.807603109
  H   -1.119767438  -2.759797734  -0.221821758
  H   -1.827647605  -1.822671293  -1.556203290
  H   -0.075555778  -1.858352012  -1.320312445
  C   -1.060037457  -0.658213085   0.124238851
  O   -0.495100023  -0.679052455   1.209107764
  N   -1.721005059   0.432230806  -0.334112944
  H   -2.030611527   0.421872921  -1.289080633
  C   -1.666062402   1.710664051   0.348578466
  H   -1.615040533   1.530509637   1.417881883
  H   -2.563809202   2.282070236   0.124003766
  H   -0.788302086   2.284026547   0.046384344
  H    3.200088575  -0.402388502   0.899911957
  H    1.681995524  -1.263313484   1.124847021
  H    2.444200930  -1.229663980  -0.492027295
  H    1.292766770   1.230622222   1.000357214
  C    2.256399604  -0.663725990   0.416833682
  C    1.475817794   0.579130355   0.125686536
  O    1.050866770   0.887783152  -0.960573080
