8
charge=0 charge_a=0 charge_b=0 selection_a=1-5 selection_b=6-8 scaling=1.5 benchmark_Eint=-0.297 benchmark_unit=kcal/mol group=noHB
  C   -1.846101358   0.005221557   0.000000000
  H   -1.398657259  -0.428951161  -0.891998789
  H   -2.911955847  -0.208682023   0.000000000
  H   -1.398657259  -0.428951161   0.891998789
  H   -1.696249032   1.082514894   0.000000000
  O    2.851605526  -0.058037874   0.000000000
  H    3.070998250   0.876579507   0.000000000
  H    1.891434369  -0.088819195   0.000000000
