18
charge=0 charge_a=0 charge_b=0 selection_a=1-5 selection_b=6-18 scaling=1.1 benchmark_Eint=-1.442 benchmark_unit=kcal/mol group=noHB
  C   -1.324505288   2.716270382  -0.189767074
  H   -2.042745031   1.964045044  -0.506325198
  H   -0.318728622   2.333282832  -0.338290148
  H   -1.473934257   2.939228535   0.864269884
  H   -1.465177288   3.622557931  -0.774551405
  H   -0.270249671  -1.286940338  -2.057266277
  H    3.081042001   0.401768657   0.030521090
  H    2.015805713  -0.331083684  -2.082251167
  H   -0.428450402  -0.787337019   2.183564662
  H   -2.115670591  -1.646269131   0.894647412
  H    1.845956219   0.163786772   2.164056366
  C    2.086384684  -0.018638745   0.039807843
  C    1.486038526  -0.431188385  -1.145475765
  C    0.208140514  -0.969069800  -1.142709013
  C   -0.480552307  -1.095503219   0.059256180
  C    0.112428888  -0.690452713   1.250552434
  C    1.393114734  -0.153268236   1.235368884
  O   -1.742700052  -1.616026006   0.009783611
