18
charge=0 charge_a=0 charge_b=0 selection_a=1-5 selection_b=6-18 scaling=0.8 benchmark_Eint=0.520 benchmark_unit=kcal/mol group=noHB
  C    3.056462517   0.000146602  -0.342505166
  H    1.996242681  -0.012981417  -0.585900789
  H    3.588624858  -0.706515427  -0.975708854
  H    3.196862079  -0.278266328   0.700195708
  H    3.457420606   0.998716781  -0.503164167
  H   -2.153810081   0.075484731  -0.454021387
  H   -1.174082482   0.977769628  -1.626443433
  H   -1.227280881  -0.785235531  -1.698708115
  H   -0.029902786  -2.087199418  -0.083626768
  H   -0.852759572  -1.324945130   1.291803061
  H    0.917438961  -1.284188930   1.170201762
  H   -0.774807848   1.247766223   1.397281269
  H    0.990089067   1.111052579   1.267791201
  C   -1.209540154   0.070393533  -1.024785595
  N   -0.039351038   0.000085824  -0.170254246
  C   -0.004478733  -1.233474075   0.592440788
  C    0.067949803   1.162943199   0.690488686
  H    0.095375872   2.068917904   0.086330757
