17
charge=0 charge_a=0 charge_b=0 selection_a=1-5 selection_b=6-17 scaling=1.0 benchmark_Eint=-1.765 benchmark_unit=kcal/mol group=noHB
  C    2.674731028  -1.035567764   0.197438963
  H    1.948388952  -1.009719239  -0.610419779
  H    3.432607513  -0.272808704   0.032214139
  H    3.151092667  -2.012551270   0.234407798
  H    2.171052766  -0.844216616   1.142772553
  C   -1.645083241  -1.186394124   0.654582426
  H   -2.556516686  -1.398832737   0.100500370
  H   -1.903426466  -0.848903725   1.656832710
  H   -1.081048584  -2.115118404   0.728724412
  C   -0.820990431  -0.187618720  -0.130343176
  O   -0.552106817  -0.363535484  -1.305935790
  N   -0.398558537   0.900400551   0.569159470
  H   -0.633345235   0.960707712   1.542663376
  C    0.445522869   1.926597703  -0.008461993
  H    0.479384218   1.762774101  -1.080888310
  H    0.037017163   2.916575825   0.190560679
  H    1.461848846   1.875562090   0.384213005
