12
charge=0 charge_a=0 charge_b=0 selection_a=1-6 selection_b=7-12 scaling=0.95 benchmark_Eint=-4.261 benchmark_unit=kcal/mol group=noHB
  O    1.575104712  -0.196099628   0.675572509
  H    1.025324259   0.548163264   0.934505936
  C    2.167596818   0.104276079  -0.581740758
  H    2.751431393  -0.765485194  -0.873796123
  H    2.835908572   0.966563815  -0.521148887
  H    1.414733901   0.297665666  -1.350495813
  H   -0.371879183  -1.571417831   0.151357426
  H   -1.616740127  -1.502221017  -1.120503372
  H   -2.098117359  -1.581020146   0.584491131
  C   -1.253377103   1.383022580   0.035328954
  N   -1.330321464   0.225389182  -0.037741098
  C   -1.357374927  -1.192233575  -0.110632619
