22
charge=0 charge_a=0 charge_b=0 selection_a=1-12 selection_b=13-22 scaling=0.8 benchmark_Eint=-1.680 benchmark_unit=kcal/mol group=noHB
  C   -1.504942748  -1.904573812   0.367002397
  H   -0.604175412  -2.102949946   0.948149147
  H   -2.364067541  -1.971456673   1.032213671
  H   -1.585851159  -2.657427861  -0.411476508
  C   -1.360173845  -0.542593093  -0.273648925
  O   -0.768694847  -0.385549094  -1.332615345
  N   -1.911560658   0.485641382   0.417445536
  H   -2.238525544   0.293203275   1.347206932
  C   -1.678225845   1.870548097   0.058022520
  H   -1.570016326   1.933575091  -1.020231685
  H   -0.769659921   2.254206285   0.524425529
  H   -2.525778388   2.477592591   0.368598992
  H    0.841615286   1.118008791  -1.576303466
  H    1.256849121   2.185615761  -0.217046425
  H    2.522274208   1.259251785  -1.067031730
  H    1.569818906  -2.013022300   0.515009251
  H    1.127599238  -1.530707352  -1.140689828
  C    1.492250728   1.247107050  -0.710267102
  C    1.256573456   0.088333848   0.226401856
  O    0.703056324   0.230686598   1.295182966
  C    1.713302780  -1.265310257  -0.259589624
  H    2.761999544  -1.235653678  -0.556931181
