17
charge=0 charge_a=0 charge_b=0 selection_a=1-5 selection_b=6-17 scaling=2.0 benchmark_Eint=-0.117 benchmark_unit=kcal/mol group=noHB
  C    2.674731028  -1.035567764   0.197438963
  H    1.948388952  -1.009719239  -0.610419779
  H    3.432607513  -0.272808704   0.032214139
  H    3.151092667  -2.012551270   0.234407798
  H    2.171052766  -0.844216616   1.142772553
  C   -4.133489699  -0.223234433   0.470376651
  H   -5.044923144  -0.435673046  -0.083705405
  H   -4.391832924   0.114255966   1.472626935
  H   -3.569455042  -1.151958713   0.544518637
  C   -3.309396889   0.775540971  -0.314548951
  O   -3.040513275   0.599624207  -1.490141565
  N   -2.886964995   1.863560242   0.384953695
  H   -3.121751693   1.923867403   1.358457601
  C   -2.042883589   2.889757394  -0.192667768
  H   -2.009022240   2.725933792  -1.265094085
  H   -2.451389295   3.879735516   0.006354904
  H   -1.026557612   2.838721781   0.200007230
