18
charge=0 charge_a=0 charge_b=0 selection_a=1-5 selection_b=6-18 scaling=1.25 benchmark_Eint=-0.904 benchmark_unit=kcal/mol group=noHB
  C   -1.324505288   2.716270382  -0.189767074
  H   -2.042745031   1.964045044  -0.506325198
  H   -0.318728622   2.333282832  -0.338290148
  H   -1.473934257   2.939228535   0.864269884
  H   -1.465177288   3.622557931  -0.774551405
  H   -0.067092796  -1.703462446  -2.028202929
  H    3.284198876  -0.014753451   0.059584438
  H    2.218962588  -0.747605792  -2.053187819
  H   -0.225293527  -1.203859127   2.212628010
  H   -1.912513716  -2.062791239   0.923710760
  H    2.049113094  -0.252735336   2.193119714
  C    2.289541559  -0.435160853   0.068871191
  C    1.689195401  -0.847710493  -1.116412417
  C    0.411297389  -1.385591908  -1.113645665
  C   -0.277395432  -1.512025327   0.088319528
  C    0.315585763  -1.106974821   1.279615782
  C    1.596271609  -0.569790344   1.264432232
  O   -1.539543177  -2.032548114   0.038846959
