14
charge=0 charge_a=0 charge_b=0 selection_a=1-7 selection_b=8-14 scaling=1.1 benchmark_Eint=-4.212 benchmark_unit=kcal/mol group=noHB
  N    1.871762033   0.010944710  -0.706875223
  H    1.522027042   0.947132577  -0.865998969
  H    2.663543629  -0.116159045  -1.322913929
  C    2.271285959  -0.158027516   0.692527030
  H    2.645411435  -1.170585875   0.839074166
  H    3.040984390   0.540550238   1.037120471
  H    1.398096211  -0.040423053   1.332403673
  H   -1.541351473  -2.498540925   0.211840961
  H   -0.377880194  -1.565022115  -0.766594439
  H   -2.113874723  -1.572149299  -1.183787359
  C   -1.391071358  -1.593578924  -0.366260503
  N   -1.610439390  -0.464345760   0.556117529
  N   -1.379167778   0.649093757   0.113411314
  N   -1.194859384   1.725614214  -0.181812470
