20
charge=0 charge_a=0 charge_b=0 selection_a=1-7 selection_b=8-20 scaling=0.8 benchmark_Eint=0.574 benchmark_unit=kcal/mol group=noHB
  N    2.367521019   1.233081297  -0.088323340
  H    1.366402963   1.300110414   0.037987637
  H    2.573111548   1.635977678  -0.992647029
  C    2.796450148  -0.162989137  -0.038646905
  H    3.875830993  -0.216128338  -0.179305345
  H    2.322500875  -0.819528406  -0.777021376
  H    2.579303882  -0.567490456   0.949853908
  H   -0.322606856  -0.866543698  -2.111705124
  H   -1.135029880   2.768183888   0.027558563
  H   -1.014183325   1.513141232  -2.105200791
  H    0.129861517  -0.741927477   2.135897516
  H    0.533952324  -2.575556781   0.818903182
  H   -0.557721657   1.625151575   2.147675855
  C   -0.837470317   1.730269735   0.022677311
  C   -0.768444465   1.023041199  -1.173800792
  C   -0.383466000  -0.309055152  -1.188803427
  C   -0.063094382  -0.945099353   0.006629596
  C   -0.127461614  -0.246456419   1.208368483
  C   -0.515401309   1.087676283   1.211300870
  O    0.317361549  -2.253783162  -0.060113933
