12
charge=0 charge_a=0 charge_b=0 selection_a=1-6 selection_b=7-12 scaling=1.1 benchmark_Eint=-3.961 benchmark_unit=kcal/mol group=noHB
  O    1.575104712  -0.196099628   0.675572509
  H    1.025324259   0.548163264   0.934505936
  C    2.167596818   0.104276079  -0.581740758
  H    2.751431393  -0.765485194  -0.873796123
  H    2.835908572   0.966563815  -0.521148887
  H    1.414733901   0.297665666  -1.350495813
  H   -0.753099188  -1.566085502   0.138529372
  H   -1.997960132  -1.496888688  -1.133331426
  H   -2.479337364  -1.575687817   0.571663077
  C   -1.634597108   1.388354909   0.022500900
  N   -1.711541469   0.230721511  -0.050569152
  C   -1.738594932  -1.186901246  -0.123460673
