14
charge=0 charge_a=0 charge_b=0 selection_a=1-7 selection_b=8-14 scaling=0.9 benchmark_Eint=-4.149 benchmark_unit=kcal/mol group=noHB
  N    1.871762033   0.010944710  -0.706875223
  H    1.522027042   0.947132577  -0.865998969
  H    2.663543629  -0.116159045  -1.322913929
  C    2.271285959  -0.158027516   0.692527030
  H    2.645411435  -1.170585875   0.839074166
  H    3.040984390   0.540550238   1.037120471
  H    1.398096211  -0.040423053   1.332403673
  H   -1.032119825  -2.510969567   0.207479353
  H    0.131351454  -1.577450757  -0.770956047
  H   -1.604643075  -1.584577941  -1.188148967
  C   -0.881839710  -1.606007566  -0.370622111
  N   -1.101207742  -0.476774402   0.551755921
  N   -0.869936130   0.636665115   0.109049706
  N   -0.685627736   1.713185572  -0.186174078
