17
charge=0 charge_a=0 charge_b=0 selection_a=1-5 selection_b=6-17 scaling=0.8 benchmark_Eint=0.630 benchmark_unit=kcal/mol group=noHB
  C    2.674731028  -1.035567764   0.197438963
  H    1.948388952  -1.009719239  -0.610419779
  H    3.432607513  -0.272808704   0.032214139
  H    3.151092667  -2.012551270   0.234407798
  H    2.171052766  -0.844216616   1.142772553
  C   -1.147401949  -1.379026062   0.691423581
  H   -2.058835394  -1.591464675   0.137341525
  H   -1.405745174  -1.041535663   1.693673865
  H   -0.583367292  -2.307750342   0.765565567
  C   -0.323309139  -0.380250658  -0.093502021
  O   -0.054425525  -0.556167422  -1.269094635
  N    0.099122755   0.707768613   0.606000625
  H   -0.135663943   0.768075774   1.579504531
  C    0.943204161   1.733965765   0.028379162
  H    0.977065510   1.570142163  -1.044047155
  H    0.534698455   2.723943887   0.227401834
  H    1.959530138   1.682930152   0.421054160
