18
charge=0 charge_a=0 charge_b=0 selection_a=1-5 selection_b=6-18 scaling=0.85 benchmark_Eint=-0.247 benchmark_unit=kcal/mol group=noHB
  C   -1.324505288   2.716270382  -0.189767074
  H   -2.042745031   1.964045044  -0.506325198
  H   -0.318728622   2.333282832  -0.338290148
  H   -1.473934257   2.939228535   0.864269884
  H   -1.465177288   3.622557931  -0.774551405
  H   -0.608844462  -0.592736825  -2.105705191
  H    2.742447210   1.095972170  -0.017917824
  H    1.677210922   0.363119829  -2.130690081
  H   -0.767045193  -0.093133506   2.135125748
  H   -2.454265382  -0.952065618   0.846208498
  H    1.507361428   0.857990285   2.115617452
  C    1.747789893   0.675564768  -0.008631071
  C    1.147443735   0.263015128  -1.193914679
  C   -0.130454277  -0.274866287  -1.191147927
  C   -0.819147098  -0.401299706   0.010817266
  C   -0.226165903   0.003750800   1.202113520
  C    1.054519943   0.540935277   1.186929970
  O   -2.081294843  -0.921822493  -0.038655303
