14
charge=0 charge_a=0 charge_b=0 selection_a=1-7 selection_b=8-14 scaling=0.95 benchmark_Eint=-4.594 benchmark_unit=kcal/mol group=noHB
  N    1.871762033   0.010944710  -0.706875223
  H    1.522027042   0.947132577  -0.865998969
  H    2.663543629  -0.116159045  -1.322913929
  C    2.271285959  -0.158027516   0.692527030
  H    2.645411435  -1.170585875   0.839074166
  H    3.040984390   0.540550238   1.037120471
  H    1.398096211  -0.040423053   1.332403673
  H   -1.159427737  -2.507862407   0.208569755
  H    0.004043542  -1.574343597  -0.769865645
  H   -1.731950987  -1.581470781  -1.187058565
  C   -1.009147622  -1.602900406  -0.369531709
  N   -1.228515654  -0.473667242   0.552846323
  N   -0.997244042   0.639772275   0.110140108
  N   -0.812935648   1.716292732  -0.185083676
