22
charge=0 charge_a=0 charge_b=0 selection_a=1-12 selection_b=13-22 scaling=1.25 benchmark_Eint=-5.120 benchmark_unit=kcal/mol group=noHB
  C   -1.504942748  -1.904573812   0.367002397
  H   -0.604175412  -2.102949946   0.948149147
  H   -2.364067541  -1.971456673   1.032213671
  H   -1.585851159  -2.657427861  -0.411476508
  C   -1.360173845  -0.542593093  -0.273648925
  O   -0.768694847  -0.385549094  -1.332615345
  N   -1.911560658   0.485641382   0.417445536
  H   -2.238525544   0.293203275   1.347206932
  C   -1.678225845   1.870548097   0.058022520
  H   -1.570016326   1.933575091  -1.020231685
  H   -0.769659921   2.254206285   0.524425529
  H   -2.525778388   2.477592591   0.368598992
  H    2.018962708   1.185742806  -1.455155319
  H    2.434196543   2.253349776  -0.095898278
  H    3.699621630   1.326985800  -0.945883583
  H    2.747166328  -1.945288285   0.636157398
  H    2.304946660  -1.462973337  -1.019541681
  C    2.669598150   1.314841065  -0.589118955
  C    2.433920878   0.156067863   0.347550003
  O    1.880403746   0.298420613   1.416331113
  C    2.890650202  -1.197576242  -0.138441477
  H    3.939346966  -1.167919663  -0.435783034
