17
charge=0 charge_a=0 charge_b=0 selection_a=1-5 selection_b=6-17 scaling=0.95 benchmark_Eint=-1.712 benchmark_unit=kcal/mol group=noHB
  C    2.674731028  -1.035567764   0.197438963
  H    1.948388952  -1.009719239  -0.610419779
  H    3.432607513  -0.272808704   0.032214139
  H    3.151092667  -2.012551270   0.234407798
  H    2.171052766  -0.844216616   1.142772553
  C   -1.520662918  -1.234552109   0.663792715
  H   -2.432096363  -1.446990722   0.109710659
  H   -1.779006143  -0.897061710   1.666042999
  H   -0.956628261  -2.163276389   0.737934701
  C   -0.696570108  -0.235776705  -0.121132887
  O   -0.427686494  -0.411693469  -1.296725501
  N   -0.274138214   0.852242566   0.578369759
  H   -0.508924912   0.912549727   1.551873665
  C    0.569943192   1.878439718   0.000748296
  H    0.603804541   1.714616116  -1.071678021
  H    0.161437486   2.868417840   0.199770968
  H    1.586269169   1.827404105   0.393423294
