16
charge=0 charge_a=0 charge_b=0 selection_a=1-5 selection_b=6-16 scaling=2.0 benchmark_Eint=-0.070 benchmark_unit=kcal/mol group=noHB
  C    2.977538070  -0.194682012  -0.335719972
  H    2.111665543  -0.540764680  -0.894158234
  H    3.510199312  -1.049273532   0.075333251
  H    3.639946144   0.359689824  -0.996696197
  H    2.643688371   0.450093288   0.472642158
  H   -3.797714238  -2.185669014   0.789655311
  H   -3.139911885  -0.640069123   2.614476868
  C   -3.933549042  -0.601277766  -0.665930920
  C   -3.699823550  -1.127370527   0.596412058
  C   -3.331630361  -0.260729334   1.618154333
  N   -3.189998809   1.053565837   1.451497753
  C   -3.415517175   1.547237043   0.234704729
  C   -3.787703789   0.765829510  -0.852322275
  H   -3.291245175   2.617361195   0.121929996
  H   -3.956159807   1.221236162  -1.817294688
  H   -4.220680448  -1.242942346  -1.487020213
