20
charge=0 charge_a=0 charge_b=0 selection_a=1-7 selection_b=8-20 scaling=0.95 benchmark_Eint=-3.454 benchmark_unit=kcal/mol group=noHB
  N    2.367521019   1.233081297  -0.088323340
  H    1.366402963   1.300110414   0.037987637
  H    2.573111548   1.635977678  -0.992647029
  C    2.796450148  -0.162989137  -0.038646905
  H    3.875830993  -0.216128338  -0.179305345
  H    2.322500875  -0.819528406  -0.777021376
  H    2.579303882  -0.567490456   0.949853908
  H   -0.720170035  -0.949773906  -2.098363885
  H   -1.532593059   2.684953680   0.040899802
  H   -1.411746504   1.429911024  -2.091859552
  H   -0.267701662  -0.825157685   2.149238755
  H    0.136389145  -2.658786989   0.832244421
  H   -0.955284836   1.541921367   2.161017094
  C   -1.235033496   1.647039527   0.036018550
  C   -1.166007644   0.939810991  -1.160459553
  C   -0.781029179  -0.392285360  -1.175462188
  C   -0.460657561  -1.028329561   0.019970835
  C   -0.525024793  -0.329686627   1.221709722
  C   -0.912964488   1.004446075   1.224642109
  O   -0.080201630  -2.337013370  -0.046772694
