19
charge=0 charge_a=0 charge_b=0 selection_a=1-12 selection_b=13-19 scaling=0.8 benchmark_Eint=-1.242 benchmark_unit=kcal/mol group=noHB
  C   -1.037875743  -1.848537083  -0.807603109
  H   -1.119767438  -2.759797734  -0.221821758
  H   -1.827647605  -1.822671293  -1.556203290
  H   -0.075555778  -1.858352012  -1.320312445
  C   -1.060037457  -0.658213085   0.124238851
  O   -0.495100023  -0.679052455   1.209107764
  N   -1.721005059   0.432230806  -0.334112944
  H   -2.030611527   0.421872921  -1.289080633
  C   -1.666062402   1.710664051   0.348578466
  H   -1.615040533   1.530509637   1.417881883
  H   -2.563809202   2.282070236   0.124003766
  H   -0.788302086   2.284026547   0.046384344
  H    3.071393929  -0.423451074   0.911439375
  H    1.553300878  -1.284376056   1.136374439
  H    2.315506284  -1.250726552  -0.480499877
  H    1.164072124   1.209559650   1.011884632
  C    2.127704958  -0.684788562   0.428361100
  C    1.347123148   0.558067783   0.137213954
  O    0.922172124   0.866720580  -0.949045662
