17
charge=0 charge_a=0 charge_b=0 selection_a=1-5 selection_b=6-17 scaling=1.1 benchmark_Eint=-1.547 benchmark_unit=kcal/mol group=noHB
  C    2.674731028  -1.035567764   0.197438963
  H    1.948388952  -1.009719239  -0.610419779
  H    3.432607513  -0.272808704   0.032214139
  H    3.151092667  -2.012551270   0.234407798
  H    2.171052766  -0.844216616   1.142772553
  C   -1.893923887  -1.090078155   0.636161849
  H   -2.805357332  -1.302516768   0.082079793
  H   -2.152267112  -0.752587756   1.638412133
  H   -1.329889230  -2.018802435   0.710303835
  C   -1.069831077  -0.091302751  -0.148763753
  O   -0.800947463  -0.267219515  -1.324356367
  N   -0.647399183   0.996716520   0.550738893
  H   -0.882185881   1.057023681   1.524242799
  C    0.196682223   2.022913672  -0.026882570
  H    0.230543572   1.859090070  -1.099308887
  H   -0.211823483   3.012891794   0.172140102
  H    1.213008200   1.971878059   0.365792428
