22
charge=0 charge_a=0 charge_b=0 selection_a=1-12 selection_b=13-22 scaling=1.5 benchmark_Eint=-2.898 benchmark_unit=kcal/mol group=noHB
  C   -1.504942748  -1.904573812   0.367002397
  H   -0.604175412  -2.102949946   0.948149147
  H   -2.364067541  -1.971456673   1.032213671
  H   -1.585851159  -2.657427861  -0.411476508
  C   -1.360173845  -0.542593093  -0.273648925
  O   -0.768694847  -0.385549094  -1.332615345
  N   -1.911560658   0.485641382   0.417445536
  H   -2.238525544   0.293203275   1.347206932
  C   -1.678225845   1.870548097   0.058022520
  H   -1.570016326   1.933575091  -1.020231685
  H   -0.769659921   2.254206285   0.524425529
  H   -2.525778388   2.477592591   0.368598992
  H    2.673044609   1.223372815  -1.387850792
  H    3.088278444   2.290979785  -0.028593751
  H    4.353703531   1.364615809  -0.878579056
  H    3.401248229  -1.907658276   0.703461925
  H    2.959028561  -1.425343328  -0.952237154
  C    3.323680051   1.352471074  -0.521814428
  C    3.088002779   0.193697872   0.414854530
  O    2.534485647   0.336050622   1.483635640
  C    3.544732103  -1.159946233  -0.071136950
  H    4.593428867  -1.130289654  -0.368478507
