14
charge=0 charge_a=0 charge_b=0 selection_a=1-7 selection_b=8-14 scaling=1.5 benchmark_Eint=-1.751 benchmark_unit=kcal/mol group=noHB
  N    1.871762033   0.010944710  -0.706875223
  H    1.522027042   0.947132577  -0.865998969
  H    2.663543629  -0.116159045  -1.322913929
  C    2.271285959  -0.158027516   0.692527030
  H    2.645411435  -1.170585875   0.839074166
  H    3.040984390   0.540550238   1.037120471
  H    1.398096211  -0.040423053   1.332403673
  H   -2.559814768  -2.473683639   0.220564175
  H   -1.396343489  -1.540164829  -0.757871225
  H   -3.132338018  -1.547292013  -1.175064145
  C   -2.409534653  -1.568721638  -0.357537289
  N   -2.628902685  -0.439488474   0.564840743
  N   -2.397631073   0.673951043   0.122134528
  N   -2.213322679   1.750471500  -0.173089256
