19
charge=0 charge_a=0 charge_b=0 selection_a=1-12 selection_b=13-19 scaling=2.0 benchmark_Eint=-0.974 benchmark_unit=kcal/mol group=noHB
  C   -1.037875743  -1.848537083  -0.807603109
  H   -1.119767438  -2.759797734  -0.221821758
  H   -1.827647605  -1.822671293  -1.556203290
  H   -0.075555778  -1.858352012  -1.320312445
  C   -1.060037457  -0.658213085   0.124238851
  O   -0.495100023  -0.679052455   1.209107764
  N   -1.721005059   0.432230806  -0.334112944
  H   -2.030611527   0.421872921  -1.289080633
  C   -1.666062402   1.710664051   0.348578466
  H   -1.615040533   1.530509637   1.417881883
  H   -2.563809202   2.282070236   0.124003766
  H   -0.788302086   2.284026547   0.046384344
  H    6.160065440   0.082050674   0.634781344
  H    4.641972389  -0.778874308   0.859716408
  H    5.404177795  -0.745224804  -0.757157908
  H    4.252743635   1.715061398   0.735226601
  C    5.216376469  -0.179286814   0.151703069
  C    4.435794659   1.063569531  -0.139444077
  O    4.010843635   1.372222328  -1.225703693
