17
charge=0 charge_a=0 charge_b=0 selection_a=1-5 selection_b=6-17 scaling=1.05 benchmark_Eint=-1.688 benchmark_unit=kcal/mol group=noHB
  C    2.674731028  -1.035567764   0.197438963
  H    1.948388952  -1.009719239  -0.610419779
  H    3.432607513  -0.272808704   0.032214139
  H    3.151092667  -2.012551270   0.234407798
  H    2.171052766  -0.844216616   1.142772553
  C   -1.769503564  -1.138236139   0.645372137
  H   -2.680937009  -1.350674752   0.091290081
  H   -2.027846789  -0.800745740   1.647622421
  H   -1.205468907  -2.066960419   0.719514123
  C   -0.945410754  -0.139460735  -0.139553465
  O   -0.676527140  -0.315377499  -1.315146079
  N   -0.522978860   0.948558536   0.559949181
  H   -0.757765558   1.008865697   1.533453087
  C    0.321102546   1.974755688  -0.017672282
  H    0.354963895   1.810932086  -1.090098599
  H   -0.087403160   2.964733810   0.181350390
  H    1.337428523   1.923720075   0.375002716
