16
charge=0 charge_a=0 charge_b=0 selection_a=1-5 selection_b=6-16 scaling=0.85 benchmark_Eint=-0.241 benchmark_unit=kcal/mol group=noHB
  C    2.977538070  -0.194682012  -0.335719972
  H    2.111665543  -0.540764680  -0.894158234
  H    3.510199312  -1.049273532   0.075333251
  H    3.639946144   0.359689824  -0.996696197
  H    2.643688371   0.450093288   0.472642158
  H   -0.400281951  -2.407936498   0.406554354
  H    0.257520402  -0.862336607   2.231375911
  C   -0.536116755  -0.823545250  -1.049031877
  C   -0.302391263  -1.349638011   0.213311101
  C    0.065801926  -0.482996818   1.235053376
  N    0.207433478   0.831298353   1.068396796
  C   -0.018084888   1.324969559  -0.148396228
  C   -0.390271502   0.543562026  -1.235423232
  H    0.106187112   2.395093711  -0.261170961
  H   -0.558727520   0.998968678  -2.200395645
  H   -0.823248161  -1.465209830  -1.870121170
