21
charge=0 charge_a=0 charge_b=0 selection_a=1-12 selection_b=13-21 scaling=0.9 benchmark_Eint=-3.922 benchmark_unit=kcal/mol group=noHB
  C    1.771091354  -1.775497027  -0.414100234
  H    0.922777499  -1.915042716  -1.080302624
  H    1.601149884  -2.339342057   0.501351384
  H    2.668381290  -2.173632986  -0.883856137
  C    2.020183996  -0.325736345  -0.050609657
  O    2.955033984   0.006079522   0.659152160
  N    1.149533811   0.570680227  -0.582254349
  H    0.318839642   0.224466722  -1.029664749
  C    1.214129705   1.980281063  -0.254702088
  H    2.255088522   2.285449068  -0.200928858
  H    0.709850031   2.551940482  -1.030340651
  H    0.742630628   2.198122694   0.705335719
  H   -2.154214487  -1.122575139  -1.876706522
  H   -1.384853773  -2.341400912   0.451668720
  H   -2.236547808   1.541546687  -1.252107883
  H   -1.073841671  -0.281845161   2.224318243
  C   -1.532888912  -1.290215953   0.283650018
  C   -1.928000424  -0.651832900  -0.936730619
  C   -1.979106050   0.677324669  -0.669161974
  O   -1.642982243   0.908478779   0.628550642
  C   -1.371320693  -0.299558714   1.192979304
