21
charge=0 charge_a=0 charge_b=0 selection_a=1-12 selection_b=13-21 scaling=1.5 benchmark_Eint=-1.592 benchmark_unit=kcal/mol group=noHB
  C    1.771091354  -1.775497027  -0.414100234
  H    0.922777499  -1.915042716  -1.080302624
  H    1.601149884  -2.339342057   0.501351384
  H    2.668381290  -2.173632986  -0.883856137
  C    2.020183996  -0.325736345  -0.050609657
  O    2.955033984   0.006079522   0.659152160
  N    1.149533811   0.570680227  -0.582254349
  H    0.318839642   0.224466722  -1.029664749
  C    1.214129705   1.980281063  -0.254702088
  H    2.255088522   2.285449068  -0.200928858
  H    0.709850031   2.551940482  -1.030340651
  H    0.742630628   2.198122694   0.705335719
  H   -3.722309951  -1.210863496  -1.766973648
  H   -2.952949237  -2.429689269   0.561401594
  H   -3.804643272   1.453258330  -1.142375009
  H   -2.641937135  -0.370133518   2.334051117
  C   -3.100984376  -1.378504310   0.393382892
  C   -3.496095888  -0.740121257  -0.826997745
  C   -3.547201514   0.589036312  -0.559429100
  O   -3.211077707   0.820190422   0.738283516
  C   -2.939416157  -0.387847071   1.302712178
