24
charge=0 charge_a=0 charge_b=0 selection_a=1-12 selection_b=13-24 scaling=0.95 benchmark_Eint=-8.864 benchmark_unit=kcal/mol group=noHB
  C    1.841645811   2.054185467   0.191492967
  H    2.766886933   2.201599390   0.745790659
  H    1.804861391   2.748723489  -0.643462036
  H    0.999910676   2.259012491   0.852361193
  C    1.681414262   0.646011979  -0.332413916
  O    0.917924241   0.380142283  -1.251331351
  N    2.424453621  -0.298926761   0.294500281
  H    2.927848895  -0.026036916   1.118869829
  C    2.278189803  -1.714918607   0.019003084
  H    2.025168327  -1.838364624  -1.029756122
  H    1.486645525  -2.161397557   0.621519146
  H    3.218008569  -2.223792328   0.221507037
  H   -2.346799983  -2.127373693  -0.808758486
  H   -0.754693588  -1.695272944  -1.485962780
  H   -0.927244093  -3.140515593  -0.452545932
  H   -2.792347394   1.906079715  -1.340669897
  H   -1.097051487   2.171038268  -0.857386209
  H   -2.386072794   2.202362517   0.374308423
  O   -0.946881042  -1.398724150   0.559788329
  C   -1.167255167  -0.082586341   0.597114985
  O   -0.736243791   0.611723414   1.478910311
  O   -1.930384348   0.332914301  -0.419160606
  C   -2.055745491   1.754560270  -0.559068585
  C   -1.273703100  -2.128378660  -0.635175402
