24
charge=0 charge_a=0 charge_b=0 selection_a=1-12 selection_b=13-24 scaling=0.8 benchmark_Eint=-2.753 benchmark_unit=kcal/mol group=noHB
  C    1.841645811   2.054185467   0.191492967
  H    2.766886933   2.201599390   0.745790659
  H    1.804861391   2.748723489  -0.643462036
  H    0.999910676   2.259012491   0.852361193
  C    1.681414262   0.646011979  -0.332413916
  O    0.917924241   0.380142283  -1.251331351
  N    2.424453621  -0.298926761   0.294500281
  H    2.927848895  -0.026036916   1.118869829
  C    2.278189803  -1.714918607   0.019003084
  H    2.025168327  -1.838364624  -1.029756122
  H    1.486645525  -2.161397557   0.621519146
  H    3.218008569  -2.223792328   0.221507037
  H   -1.965007671  -2.085398348  -0.852909551
  H   -0.372901276  -1.653297599  -1.530113845
  H   -0.545451781  -3.098540248  -0.496696997
  H   -2.410555082   1.948055060  -1.384820962
  H   -0.715259175   2.213013613  -0.901537274
  H   -2.004280482   2.244337862   0.330157358
  O   -0.565088730  -1.356748805   0.515637264
  C   -0.785462855  -0.040610996   0.552963920
  O   -0.354451479   0.653698759   1.434759246
  O   -1.548592036   0.374889646  -0.463311671
  C   -1.673953179   1.796535615  -0.603219650
  C   -0.891910788  -2.086403315  -0.679326467
