19
charge=0 charge_a=0 charge_b=0 selection_a=1-13 selection_b=14-19 scaling=0.85 benchmark_Eint=-4.838 benchmark_unit=kcal/mol group=noHB
  H   -1.341554586  -1.420463904  -1.852784604
  H   -2.865593648   1.989205443   0.268218191
  H   -2.897287386   0.504741787  -1.715630731
  H    0.241831612  -0.416346077   1.983916373
  H    1.144963064  -1.995247747   0.492976254
  H   -1.290518668   1.511309729   2.120701491
  C   -2.193314150   1.146066095   0.207774084
  C   -2.209777696   0.310650811  -0.904324071
  C   -1.345394423  -0.771382600  -0.989390497
  C   -0.454749486  -1.030555319   0.049792746
  C   -0.444987941  -0.208614930   1.175561814
  C   -1.308297689   0.876869441   1.245562793
  O    0.378188082  -2.097996583  -0.084209753
  H    1.963588800   2.485078326  -0.483571189
  H    0.455863892   1.548206657  -0.595570600
  H    1.686059905   1.412659254  -1.869921430
  C    2.527983148  -0.446355533   0.493040176
  N    2.124723562   0.469408081  -0.095478068
  C    1.524221051   1.542673890  -0.802508458
