24
charge=0 charge_a=0 charge_b=0 selection_a=1-12 selection_b=13-24 scaling=1.05 benchmark_Eint=-8.552 benchmark_unit=kcal/mol group=noHB
  C    1.841645811   2.054185467   0.191492967
  H    2.766886933   2.201599390   0.745790659
  H    1.804861391   2.748723489  -0.643462036
  H    0.999910676   2.259012491   0.852361193
  C    1.681414262   0.646011979  -0.332413916
  O    0.917924241   0.380142283  -1.251331351
  N    2.424453621  -0.298926761   0.294500281
  H    2.927848895  -0.026036916   1.118869829
  C    2.278189803  -1.714918607   0.019003084
  H    2.025168327  -1.838364624  -1.029756122
  H    1.486645525  -2.161397557   0.621519146
  H    3.218008569  -2.223792328   0.221507037
  H   -2.601328191  -2.155357257  -0.779324444
  H   -1.009221796  -1.723256508  -1.456528738
  H   -1.181772301  -3.168499157  -0.423111890
  H   -3.046875602   1.878096151  -1.311235855
  H   -1.351579695   2.143054704  -0.827952167
  H   -2.640601002   2.174378953   0.403742465
  O   -1.201409250  -1.426707714   0.589222371
  C   -1.421783375  -0.110569905   0.626549027
  O   -0.990771999   0.583739850   1.508344353
  O   -2.184912556   0.304930737  -0.389726564
  C   -2.310273699   1.726576706  -0.529634543
  C   -1.528231308  -2.156362224  -0.605741360
