9
charge=0 charge_a=0 charge_b=0 selection_a=1-3 selection_b=4-9 scaling=2.0 benchmark_Eint=-0.719 benchmark_unit=kcal/mol group=noHB
  O    2.117646266  -0.063971009   0.000000000
  H    1.566706960   0.725029523   0.000000000
  H    3.022595991   0.254923981   0.000000000
  H   -3.957827806  -1.581005514  -0.887150416
  H   -3.957827806  -1.581005514   0.887150416
  H   -2.416049485  -1.548657916   0.000000000
  C   -3.430031556   1.371722631   0.000000000
  N   -3.465218185   0.209914627   0.000000000
  C   -3.449363210  -1.210254769   0.000000000
