24
charge=0 charge_a=0 charge_b=0 selection_a=1-12 selection_b=13-24 scaling=2.0 benchmark_Eint=-1.193 benchmark_unit=kcal/mol group=noHB
  C    1.841645811   2.054185467   0.191492967
  H    2.766886933   2.201599390   0.745790659
  H    1.804861391   2.748723489  -0.643462036
  H    0.999910676   2.259012491   0.852361193
  C    1.681414262   0.646011979  -0.332413916
  O    0.917924241   0.380142283  -1.251331351
  N    2.424453621  -0.298926761   0.294500281
  H    2.927848895  -0.026036916   1.118869829
  C    2.278189803  -1.714918607   0.019003084
  H    2.025168327  -1.838364624  -1.029756122
  H    1.486645525  -2.161397557   0.621519146
  H    3.218008569  -2.223792328   0.221507037
  H   -5.019346165  -2.421201109  -0.499701037
  H   -3.427239770  -1.989100360  -1.176905331
  H   -3.599790275  -3.434343009  -0.143488483
  H   -5.464893576   1.612252299  -1.031612448
  H   -3.769597669   1.877210852  -0.548328760
  H   -5.058618976   1.908535101   0.683365872
  O   -3.619427224  -1.692551566   0.868845778
  C   -3.839801349  -0.376413757   0.906172434
  O   -3.408789973   0.317895998   1.787967760
  O   -4.602930530   0.039086885  -0.110103157
  C   -4.728291673   1.460732854  -0.250011136
  C   -3.946249282  -2.422206076  -0.326117953
