24
charge=0 charge_a=0 charge_b=0 selection_a=1-12 selection_b=13-24 scaling=0.9 benchmark_Eint=-8.135 benchmark_unit=kcal/mol group=noHB
  C    1.841645811   2.054185467   0.191492967
  H    2.766886933   2.201599390   0.745790659
  H    1.804861391   2.748723489  -0.643462036
  H    0.999910676   2.259012491   0.852361193
  C    1.681414262   0.646011979  -0.332413916
  O    0.917924241   0.380142283  -1.251331351
  N    2.424453621  -0.298926761   0.294500281
  H    2.927848895  -0.026036916   1.118869829
  C    2.278189803  -1.714918607   0.019003084
  H    2.025168327  -1.838364624  -1.029756122
  H    1.486645525  -2.161397557   0.621519146
  H    3.218008569  -2.223792328   0.221507037
  H   -2.219535879  -2.113381912  -0.823475508
  H   -0.627429484  -1.681281163  -1.500679802
  H   -0.799979989  -3.126523812  -0.467262954
  H   -2.665083290   1.920071496  -1.355386919
  H   -0.969787383   2.185030049  -0.872103231
  H   -2.258808690   2.216354298   0.359591401
  O   -0.819616938  -1.384732369   0.545071307
  C   -1.039991063  -0.068594560   0.582397963
  O   -0.608979687   0.625715195   1.464193289
  O   -1.803120244   0.346906082  -0.433877628
  C   -1.928481387   1.768552051  -0.573785607
  C   -1.146438996  -2.114386879  -0.649892424
