9
charge=0 charge_a=0 charge_b=0 selection_a=1-3 selection_b=4-9 scaling=1.0 benchmark_Eint=-4.375 benchmark_unit=kcal/mol group=noHB
  O    2.117646266  -0.063971009   0.000000000
  H    1.566706960   0.725029523   0.000000000
  H    3.022595991   0.254923981   0.000000000
  H   -1.447114943  -1.583337353  -0.887150416
  H   -1.447114943  -1.583337353   0.887150416
  H    0.094663378  -1.550989755   0.000000000
  C   -0.919318693   1.369390792   0.000000000
  N   -0.954505322   0.207582788   0.000000000
  C   -0.938650347  -1.212586608   0.000000000
