9
charge=0 charge_a=0 charge_b=0 selection_a=1-3 selection_b=4-9 scaling=0.9 benchmark_Eint=-3.819 benchmark_unit=kcal/mol group=noHB
  O    2.117646266  -0.063971009   0.000000000
  H    1.566706960   0.725029523   0.000000000
  H    3.022595991   0.254923981   0.000000000
  H   -1.196043657  -1.583570537  -0.887150416
  H   -1.196043657  -1.583570537   0.887150416
  H    0.345734664  -1.551222939   0.000000000
  C   -0.668247407   1.369157608   0.000000000
  N   -0.703434036   0.207349604   0.000000000
  C   -0.687579061  -1.212819792   0.000000000
