21
charge=0 charge_a=0 charge_b=0 selection_a=1-12 selection_b=13-21 scaling=1.25 benchmark_Eint=-2.984 benchmark_unit=kcal/mol group=noHB
  C    1.771091354  -1.775497027  -0.414100234
  H    0.922777499  -1.915042716  -1.080302624
  H    1.601149884  -2.339342057   0.501351384
  H    2.668381290  -2.173632986  -0.883856137
  C    2.020183996  -0.325736345  -0.050609657
  O    2.955033984   0.006079522   0.659152160
  N    1.149533811   0.570680227  -0.582254349
  H    0.318839642   0.224466722  -1.029664749
  C    1.214129705   1.980281063  -0.254702088
  H    2.255088522   2.285449068  -0.200928858
  H    0.709850031   2.551940482  -1.030340651
  H    0.742630628   2.198122694   0.705335719
  H   -3.068936841  -1.174076681  -1.812695679
  H   -2.299576127  -2.392902454   0.515679563
  H   -3.151270162   1.490045145  -1.188097040
  H   -1.988564025  -0.333346703   2.288329086
  C   -2.447611266  -1.341717495   0.347660861
  C   -2.842722778  -0.703334442  -0.872719776
  C   -2.893828404   0.625823127  -0.605151131
  O   -2.557704597   0.856977237   0.692561485
  C   -2.286043047  -0.351060256   1.256990147
