19
charge=0 charge_a=0 charge_b=0 selection_a=1-13 selection_b=14-19 scaling=2.0 benchmark_Eint=-1.076 benchmark_unit=kcal/mol group=noHB
  H   -1.341554586  -1.420463904  -1.852784604
  H   -2.865593648   1.989205443   0.268218191
  H   -2.897287386   0.504741787  -1.715630731
  H    0.241831612  -0.416346077   1.983916373
  H    1.144963064  -1.995247747   0.492976254
  H   -1.290518668   1.511309729   2.120701491
  C   -2.193314150   1.146066095   0.207774084
  C   -2.209777696   0.310650811  -0.904324071
  C   -1.345394423  -0.771382600  -0.989390497
  C   -0.454749486  -1.030555319   0.049792746
  C   -0.444987941  -0.208614930   1.175561814
  C   -1.308297689   0.876869441   1.245562793
  O    0.378188082  -2.097996583  -0.084209753
  H    4.579663662   3.284510218  -0.737888530
  H    3.071938754   2.347638549  -0.849887941
  H    4.302134767   2.212091146  -2.124238771
  C    5.144058010   0.353076359   0.238722835
  N    4.740798424   1.268839973  -0.349795409
  C    4.140295913   2.342105782  -1.056825799
