24
charge=0 charge_a=0 charge_b=0 selection_a=1-12 selection_b=13-24 scaling=1.5 benchmark_Eint=-3.332 benchmark_unit=kcal/mol group=noHB
  C    1.841645811   2.054185467   0.191492967
  H    2.766886933   2.201599390   0.745790659
  H    1.804861391   2.748723489  -0.643462036
  H    0.999910676   2.259012491   0.852361193
  C    1.681414262   0.646011979  -0.332413916
  O    0.917924241   0.380142283  -1.251331351
  N    2.424453621  -0.298926761   0.294500281
  H    2.927848895  -0.026036916   1.118869829
  C    2.278189803  -1.714918607   0.019003084
  H    2.025168327  -1.838364624  -1.029756122
  H    1.486645525  -2.161397557   0.621519146
  H    3.218008569  -2.223792328   0.221507037
  H   -3.746705126  -2.281283292  -0.646871251
  H   -2.154598731  -1.849182543  -1.324075545
  H   -2.327149236  -3.294425192  -0.290658697
  H   -4.192252537   1.752170116  -1.178782662
  H   -2.496956630   2.017128669  -0.695498974
  H   -3.785977937   2.048452918   0.536195658
  O   -2.346786185  -1.552633749   0.721675564
  C   -2.567160310  -0.236495940   0.759002220
  O   -2.136148934   0.457813815   1.640797546
  O   -3.330289491   0.179004702  -0.257273371
  C   -3.455650634   1.600650671  -0.397181350
  C   -2.673608243  -2.282288259  -0.473288167
