9
charge=0 charge_a=0 charge_b=0 selection_a=1-3 selection_b=4-9 scaling=1.5 benchmark_Eint=-1.744 benchmark_unit=kcal/mol group=noHB
  O    2.117646266  -0.063971009   0.000000000
  H    1.566706960   0.725029523   0.000000000
  H    3.022595991   0.254923981   0.000000000
  H   -2.702471374  -1.582171433  -0.887150416
  H   -2.702471374  -1.582171433   0.887150416
  H   -1.160693053  -1.549823835   0.000000000
  C   -2.174675124   1.370556712   0.000000000
  N   -2.209861753   0.208748708   0.000000000
  C   -2.194006778  -1.211420688   0.000000000
