19
charge=0 charge_a=0 charge_b=0 selection_a=1-13 selection_b=14-19 scaling=1.25 benchmark_Eint=-4.907 benchmark_unit=kcal/mol group=noHB
  H   -1.341554586  -1.420463904  -1.852784604
  H   -2.865593648   1.989205443   0.268218191
  H   -2.897287386   0.504741787  -1.715630731
  H    0.241831612  -0.416346077   1.983916373
  H    1.144963064  -1.995247747   0.492976254
  H   -1.290518668   1.511309729   2.120701491
  C   -2.193314150   1.146066095   0.207774084
  C   -2.209777696   0.310650811  -0.904324071
  C   -1.345394423  -0.771382600  -0.989390497
  C   -0.454749486  -1.030555319   0.049792746
  C   -0.444987941  -0.208614930   1.175561814
  C   -1.308297689   0.876869441   1.245562793
  O    0.378188082  -2.097996583  -0.084209753
  H    2.873527882   2.763141593  -0.572029395
  H    1.365802974   1.826269924  -0.684028806
  H    2.595998987   1.690722521  -1.958379636
  C    3.437922230  -0.168292266   0.404581970
  N    3.034662644   0.747471348  -0.183936274
  C    2.434160133   1.820737157  -0.890966664
