4
charge=0 charge_a=0 charge_b=0 selection_a=1-2 selection_b=3-4 scaling=1.25 benchmark_Eint=-0.048 benchmark_unit=kcal/mol group=HBCNO
  H    0.294609617   0.812273020  -1.852328373
  H    0.056084218   0.417807318  -1.271262175
  H   -0.467573846  -1.182530134   2.241391390
  H   -0.034955112  -0.580121292   2.234577507
