4
charge=0 charge_a=0 charge_b=0 selection_a=1-2 selection_b=3-4 scaling=2.00 benchmark_Eint=-0.004 benchmark_unit=kcal/mol group=HBCNO
  H    0.294609617   0.812273020  -1.852328373
  H    0.056084218   0.417807318  -1.271262175
  H   -0.695326527  -1.981386764   4.269958910
  H   -0.262707793  -1.378977922   4.263145027
