20
charge=0 charge_a=0 charge_b=0 selection_a=1-2 selection_b=3-20 scaling=1.25 benchmark_Eint=-0.618 benchmark_unit=kcal/mol group=HBCNO
  H    1.658340955   0.097979920  -3.215610382
  H    1.530674598  -0.220313586  -2.557542042
  C    1.615777046  -1.729489898   0.804549615
  C    0.452566842  -2.328645680   0.276884305
  C   -0.698822877  -1.599553898   0.140227990
  C   -0.745335702  -0.238392556   0.522988083
  C   -1.916942855   0.543732225   0.391160642
  C   -1.927823033   1.860365931   0.767399220
  C   -0.764361733   2.459689621   1.294941000
  C    0.385818279   1.729918264   1.435394763
  C    0.430931379   0.367511251   1.056500841
  C    1.603472957  -0.413656777   1.184547712
  H    2.518810388  -2.314535772   0.905429963
  H    0.475393907  -3.367078814  -0.021546372
  H   -1.591120793  -2.056197179  -0.266357576
  H   -2.807305219   0.082370098  -0.014428655
  H   -2.829148144   2.447187142   0.661085550
  H   -0.785643226   3.499842487   1.587640406
  H    1.279226296   2.187392338   1.838675224
  H    2.494822970   0.048446390   1.587028617
