20
charge=0 charge_a=0 charge_b=0 selection_a=1-2 selection_b=3-20 scaling=0.95 benchmark_Eint=-1.020 benchmark_unit=kcal/mol group=HBCNO
  H    1.658340955   0.097979920  -3.215610382
  H    1.530674598  -0.220313586  -2.557542042
  C    2.012181253  -1.758098263  -0.027201121
  C    0.848971049  -2.357254045  -0.554866431
  C   -0.302418670  -1.628162263  -0.691522746
  C   -0.348931495  -0.267000921  -0.308762653
  C   -1.520538648   0.515123860  -0.440590094
  C   -1.531418826   1.831757566  -0.064351516
  C   -0.367957526   2.431081256   0.463190264
  C    0.782222486   1.701309899   0.603644027
  C    0.827335586   0.338902886   0.224750105
  C    1.999877164  -0.442265142   0.352796976
  H    2.915214595  -2.343144137   0.073679227
  H    0.871798114  -3.395687179  -0.853297108
  H   -1.194716586  -2.084805544  -1.098108312
  H   -2.410901012   0.053761733  -0.846179391
  H   -2.432743937   2.418578777  -0.170665186
  H   -0.389239019   3.471234122   0.755889670
  H    1.675630503   2.158783973   1.006924488
  H    2.891227177   0.019838025   0.755277881
