17
charge=0 charge_a=0 charge_b=0 selection_a=1-2 selection_b=3-17 scaling=1.50 benchmark_Eint=-0.206 benchmark_unit=kcal/mol group=HBCNO
  H   -1.953592303   1.735126891  -2.215535759
  H   -2.371403017   2.228965082  -2.580419333
  C    1.190147446  -1.370886062   2.205264135
  C    0.296016174  -0.144701699   1.856362948
  C    1.144147903   0.428853548   0.706221495
  C    1.653288755  -0.602634485   0.041032907
  C    1.155272599  -1.883362405   0.735509077
  C   -0.372734588  -1.934187133   0.553360180
  C   -0.882650624  -0.903218469   1.218758064
  H    0.721923406  -2.056044732   2.909186966
  H    2.188001225  -1.092453879   2.538361819
  H    0.044635150   0.545076682   2.654975377
  H    1.235234441   1.478432790   0.478200506
  H    2.254170357  -0.586415598  -0.853876323
  H    1.695214705  -2.794808267   0.501849530
  H   -0.892030542  -2.654175140  -0.058302829
  H   -1.912729803  -0.590552868   1.274344509
