17
charge=0 charge_a=0 charge_b=0 selection_a=1-2 selection_b=3-17 scaling=0.90 benchmark_Eint=-0.467 benchmark_unit=kcal/mol group=HBCNO
  H   -1.953592303   1.735126891  -2.215535759
  H   -2.371403017   2.228965082  -2.580419333
  C    0.247716513  -0.382039222   1.028144885
  C   -0.646414759   0.844145141   0.679243698
  C    0.201716970   1.417700388  -0.470897755
  C    0.710857822   0.386212355  -1.136086343
  C    0.212841666  -0.894515565  -0.441610173
  C   -1.315165521  -0.945340293  -0.623759070
  C   -1.825081557   0.085628371   0.041638814
  H   -0.220507527  -1.067197892   1.732067716
  H    1.245570292  -0.103607039   1.361242569
  H   -0.897795783   1.533923522   1.477856127
  H    0.292803508   2.467279630  -0.698918744
  H    1.311739424   0.402431242  -2.030995573
  H    0.752783772  -1.805961427  -0.675269720
  H   -1.834461475  -1.665328300  -1.235422079
  H   -2.855160736   0.398293972   0.097225259
