22
charge=0 charge_a=0 charge_b=0 selection_a=1-2 selection_b=3-22 scaling=1.10 benchmark_Eint=-0.318 benchmark_unit=kcal/mol group=HBCNO
  H   -2.079290979   3.559746288  -2.355547763
  H   -2.281729862   4.136433962  -2.776010624
  C   -1.060172588   1.021023392  -0.479708613
  C   -0.550790687  -0.148437976   0.367342817
  C   -1.590846221  -1.272225329   0.358326709
  C    0.840786325  -0.636926888  -0.089925917
  C    1.879967531   0.487745817  -0.083522430
  C    1.351442835  -1.804774262   0.758663757
  H   -2.063111953   1.312548470  -0.167688037
  H   -1.111707709   0.738667716  -1.533749469
  H   -0.423854145   1.899582853  -0.399697433
  H   -0.444137734   0.204479071   1.399634662
  H   -1.678160214  -1.707841400  -0.639613060
  H   -2.572403543  -0.888708614   0.636829352
  H   -1.343403457  -2.072807619   1.051776343
  H    0.733558969  -0.991243972  -1.121717415
  H    1.966674026   0.926112419   0.913278180
  H    1.632543813   1.286369258  -0.779298946
  H    2.861858461   0.104056062  -0.360556259
  H    1.404827828  -1.520663835   1.812095519
  H    2.353878613  -2.096690709   0.445604623
  H    0.715460970  -2.683788322   0.681541256
