17
charge=0 charge_a=0 charge_b=0 selection_a=1-2 selection_b=3-17 scaling=0.85 benchmark_Eint=-0.121 benchmark_unit=kcal/mol group=HBCNO
  H   -1.953592303   1.735126891  -2.215535759
  H   -2.371403017   2.228965082  -2.580419333
  C    0.169180602  -0.299635319   0.930051614
  C   -0.724950670   0.926549044   0.581150427
  C    0.123181059   1.500104291  -0.568991026
  C    0.632321911   0.468616258  -1.234179614
  C    0.134305755  -0.812111662  -0.539703444
  C   -1.393701432  -0.862936390  -0.721852341
  C   -1.903617468   0.168032274  -0.056454457
  H   -0.299043438  -0.984793989   1.633974445
  H    1.167034381  -0.021203136   1.263149298
  H   -0.976331694   1.616327425   1.379762856
  H    0.214267597   2.549683533  -0.797012015
  H    1.233203513   0.484835145  -2.129088844
  H    0.674247861  -1.723557524  -0.773362991
  H   -1.912997386  -1.582924397  -1.333515350
  H   -2.933696647   0.480697875  -0.000868012
