22
charge=0 charge_a=0 charge_b=0 selection_a=1-2 selection_b=3-22 scaling=0.80 benchmark_Eint=0.273 benchmark_unit=kcal/mol group=HBCNO
  H   -1.914261894   4.030191099  -3.263884393
  H   -1.651682830   3.506711537  -2.808516291
  C   -0.404901783  -0.703896643  -0.929015092
  C   -0.147934388   0.701300519  -0.343773572
  C    1.356320554   0.989905832  -0.263258584
  C   -0.801194406   1.729632731  -1.275905641
  C   -0.769957640   0.830678046   1.052214827
  C    0.169822852  -1.882792323  -0.146866119
  H   -0.004640615  -0.724230178  -1.946151783
  H   -1.485681952  -0.836222696  -1.026929017
  H    1.860132625   0.317245471   0.429593720
  H    1.828154659   0.881820733  -1.241110276
  H    1.532881406   2.009373451   0.081720310
  H   -1.875966170   1.559806399  -1.354625958
  H   -0.378506408   1.671128420  -2.279942811
  H   -0.648263481   2.744353369  -0.906163034
  H   -1.837828792   0.608147866   1.026750232
  H   -0.302368335   0.154525113   1.766726313
  H   -0.649384532   1.845596696   1.432880320
  H    1.254647358  -1.825786613  -0.065742411
  H   -0.237259699  -1.937692013   0.862076254
  H   -0.069846101  -2.821803350  -0.645439761
