22
charge=0 charge_a=0 charge_b=0 selection_a=1-2 selection_b=3-22 scaling=1.25 benchmark_Eint=-0.202 benchmark_unit=kcal/mol group=HBCNO
  H   -1.914261894   4.030191099  -3.263884393
  H   -1.651682830   3.506711537  -2.808516291
  C    0.041300768  -1.627548010  -0.208538996
  C    0.298268163  -0.222350848   0.376702524
  C    1.802523105   0.066254465   0.457217512
  C   -0.354991855   0.805981364  -0.555429545
  C   -0.323755089  -0.092973321   1.772690923
  C    0.616025403  -2.806443690   0.573609977
  H    0.441561936  -1.647881545  -1.225675687
  H   -1.039479401  -1.759874063  -0.306452921
  H    2.306335176  -0.606405896   1.150069816
  H    2.274357210  -0.041830634  -0.520634180
  H    1.979083957   1.085722084   0.802196406
  H   -1.429763619   0.636155032  -0.634149862
  H    0.067696143   0.747477053  -1.559466715
  H   -0.202060930   1.820702002  -0.185686938
  H   -1.391626241  -0.315503501   1.747226328
  H    0.143834216  -0.769126254   2.487202409
  H   -0.203181981   0.921945329   2.153356416
  H    1.700849909  -2.749437980   0.654733685
  H    0.208942852  -2.861343380   1.582552350
  H    0.376356450  -3.745454717   0.075036335
