17
charge=0 charge_a=0 charge_b=0 selection_a=1-2 selection_b=3-17 scaling=0.95 benchmark_Eint=-0.635 benchmark_unit=kcal/mol group=HBCNO
  H   -1.953592303   1.735126891  -2.215535759
  H   -2.371403017   2.228965082  -2.580419333
  C    0.326252424  -0.464443126   1.126238156
  C   -0.567878848   0.761741237   0.777336969
  C    0.280252881   1.335296484  -0.372804484
  C    0.789393733   0.303808451  -1.037993072
  C    0.291377577  -0.976919469  -0.343516902
  C   -1.236629610  -1.027744197  -0.525665799
  C   -1.746545646   0.003224467   0.139732085
  H   -0.141971616  -1.149601796   1.830160987
  H    1.324106203  -0.186010943   1.459335840
  H   -0.819259872   1.451519618   1.575949398
  H    0.371339419   2.384875726  -0.600825473
  H    1.390275335   0.320027338  -1.932902302
  H    0.831319683  -1.888365331  -0.577176449
  H   -1.755925564  -1.747732204  -1.137328808
  H   -2.776624825   0.315890068   0.195318530
