20
charge=0 charge_a=0 charge_b=0 selection_a=1-2 selection_b=3-20 scaling=1.05 benchmark_Eint=-1.016 benchmark_unit=kcal/mol group=HBCNO
  H    1.658340955   0.097979920  -3.215610382
  H    1.530674598  -0.220313586  -2.557542042
  C    1.880046517  -1.748562141   0.250049125
  C    0.716836313  -2.347717923  -0.277616185
  C   -0.434553406  -1.618626141  -0.414272500
  C   -0.481066231  -0.257464799  -0.031512407
  C   -1.652673384   0.524659982  -0.163339848
  C   -1.663553562   1.841293688   0.212898730
  C   -0.500092262   2.440617378   0.740440510
  C    0.650087750   1.710846021   0.880894273
  C    0.695200850   0.348439008   0.502000351
  C    1.867742428  -0.432729020   0.630047222
  H    2.783079859  -2.333608015   0.350929473
  H    0.739663378  -3.386151057  -0.576046862
  H   -1.326851322  -2.075269422  -0.820858066
  H   -2.543035748   0.063297855  -0.568929145
  H   -2.564878673   2.428114899   0.106585060
  H   -0.521373755   3.480770244   1.033139916
  H    1.543495767   2.168320095   1.284174734
  H    2.759092441   0.029374147   1.032528127
