20
charge=0 charge_a=0 charge_b=0 selection_a=1-2 selection_b=3-20 scaling=0.95 benchmark_Eint=-0.498 benchmark_unit=kcal/mol group=HBCNO
  H   -1.699817460   2.236064399  -2.368356551
  H   -1.762600846   2.689707931  -2.951786275
  C   -1.221192715  -0.413872086  -0.618924495
  C   -0.090827239  -1.386556338  -0.275505860
  C    1.274747725  -0.698384409  -0.332757848
  C    1.313555011   0.541070004   0.563875900
  C    0.183436358   1.514251204   0.220953407
  C   -1.182275289   0.826290652   0.276706028
  H   -2.188430121  -0.911892423  -0.533532981
  H   -1.120649228  -0.105489885  -1.664051304
  H   -0.111334848  -2.243512144  -0.950839499
  H   -0.251347936  -1.780003139   0.732968925
  H    1.481889444  -0.399849994  -1.365006101
  H    2.062731477  -1.397054906  -0.046712345
  H    2.280530554   1.039629634   0.478622177
  H    1.213685946   0.230220319   1.608390923
  H    0.345372920   1.909013869  -0.786605211
  H    0.203092841   2.370621392   0.897049499
  H   -1.970519012   1.525285539  -0.008633964
  H   -1.391262547   0.528692439   1.308791291
