20
charge=0 charge_a=0 charge_b=0 selection_a=1-2 selection_b=3-20 scaling=2.00 benchmark_Eint=-0.063 benchmark_unit=kcal/mol group=HBCNO
  H    1.658340955   0.097979920  -3.215610382
  H    1.530674598  -0.220313586  -2.557542042
  C    0.624766530  -1.657968985   2.883926452
  C   -0.538443674  -2.257124767   2.356261142
  C   -1.689833393  -1.528032985   2.219604827
  C   -1.736346218  -0.166871643   2.602364920
  C   -2.907953371   0.615253138   2.470537479
  C   -2.918833549   1.931886844   2.846776057
  C   -1.755372249   2.531210534   3.374317837
  C   -0.605192237   1.801439177   3.514771600
  C   -0.560079137   0.439032164   3.135877678
  C    0.612462441  -0.342135864   3.263924549
  H    1.527799872  -2.243014859   2.984806800
  H   -0.515616609  -3.295557901   2.057830465
  H   -2.582131309  -1.984676266   1.813019261
  H   -3.798315735   0.153891011   2.064948182
  H   -3.820158660   2.518708055   2.740462387
  H   -1.776653742   3.571363400   3.667017243
  H    0.288215780   2.258913251   3.918052061
  H    1.503812454   0.119967303   3.666405454
