22
charge=0 charge_a=0 charge_b=0 selection_a=1-2 selection_b=3-22 scaling=0.85 benchmark_Eint=-0.097 benchmark_unit=kcal/mol group=HBCNO
  H   -2.079290979   3.559746288  -2.355547763
  H   -2.281729862   4.136433962  -2.776010624
  C   -1.352687083   1.554376431  -0.819857476
  C   -0.843305182   0.384915063   0.027193954
  C   -1.883360716  -0.738872290   0.018177846
  C    0.548271830  -0.103573849  -0.430074780
  C    1.587453036   1.021098856  -0.423671293
  C    1.058928340  -1.271421223   0.418514894
  H   -2.355626448   1.845901509  -0.507836900
  H   -1.404222204   1.272020755  -1.873898332
  H   -0.716368640   2.432935892  -0.739846296
  H   -0.736652229   0.737832110   1.059485799
  H   -1.970674709  -1.174488361  -0.979761923
  H   -2.864918038  -0.355355575   0.296680489
  H   -1.635917952  -1.539454580   0.711627480
  H    0.441044474  -0.457890933  -1.461866278
  H    1.674159531   1.459465458   0.573129317
  H    1.340029318   1.819722297  -1.119447809
  H    2.569343966   0.637409101  -0.700705122
  H    1.112313333  -0.987310796   1.471946656
  H    2.061364118  -1.563337670   0.105455760
  H    0.422946475  -2.150435283   0.341392393
