17
charge=0 charge_a=0 charge_b=0 selection_a=1-2 selection_b=3-17 scaling=1.10 benchmark_Eint=-0.637 benchmark_unit=kcal/mol group=HBCNO
  H   -1.953592303   1.735126891  -2.215535759
  H   -2.371403017   2.228965082  -2.580419333
  C    0.561860157  -0.711654836   1.420517969
  C   -0.332271115   0.514529527   1.071616782
  C    0.515860614   1.088084774  -0.078524671
  C    1.025001466   0.056596741  -0.743713259
  C    0.526985310  -1.224131179  -0.049237089
  C   -1.001021877  -1.274955907  -0.231385986
  C   -1.510937913  -0.243987243   0.434011898
  H    0.093636117  -1.396813506   2.124440800
  H    1.559713936  -0.433222653   1.753615653
  H   -0.583652139   1.204307908   1.870229211
  H    0.606947152   2.137664016  -0.306545660
  H    1.625883068   0.072815628  -1.638622489
  H    1.066927416  -2.135577041  -0.282896636
  H   -1.520317831  -1.994943914  -0.843048995
  H   -2.541017092   0.068678358   0.489598343
