20
charge=0 charge_a=0 charge_b=0 selection_a=1-2 selection_b=3-20 scaling=1.00 benchmark_Eint=-0.517 benchmark_unit=kcal/mol group=HBCNO
  H   -1.699817460   2.236064399  -2.368356551
  H   -1.762600846   2.689707931  -2.951786275
  C   -1.163640070  -0.491553476  -0.533685777
  C   -0.033274594  -1.464237728  -0.190267142
  C    1.332300370  -0.776065799  -0.247519130
  C    1.371107656   0.463388614   0.649114618
  C    0.240989003   1.436569814   0.306192125
  C   -1.124722644   0.748609262   0.361944746
  H   -2.130877476  -0.989573813  -0.448294263
  H   -1.063096583  -0.183171275  -1.578812586
  H   -0.053782203  -2.321193534  -0.865600781
  H   -0.193795291  -1.857684529   0.818207643
  H    1.539442089  -0.477531384  -1.279767383
  H    2.120284122  -1.474736296   0.038526373
  H    2.338083199   0.961948244   0.563860895
  H    1.271238591   0.152538929   1.693629641
  H    0.402925565   1.831332479  -0.701366493
  H    0.260645486   2.292940002   0.982288217
  H   -1.912966367   1.447604149   0.076604754
  H   -1.333709902   0.451011049   1.394030009
