22
charge=0 charge_a=0 charge_b=0 selection_a=1-2 selection_b=3-22 scaling=0.80 benchmark_Eint=0.271 benchmark_unit=kcal/mol group=HBCNO
  H   -2.079290979   3.559746288  -2.355547763
  H   -2.281729862   4.136433962  -2.776010624
  C   -1.411189982   1.661047039  -0.887887248
  C   -0.901808081   0.491585671  -0.040835818
  C   -1.941863615  -0.632201682  -0.049851926
  C    0.489768931   0.003096759  -0.498104552
  C    1.528950137   1.127769464  -0.491701065
  C    1.000425441  -1.164750615   0.350485122
  H   -2.414129347   1.952572117  -0.575866672
  H   -1.462725103   1.378691363  -1.941928104
  H   -0.774871539   2.539606500  -0.807876068
  H   -0.795155128   0.844502718   0.991456027
  H   -2.029177608  -1.067817753  -1.047791695
  H   -2.923420937  -0.248684967   0.228650717
  H   -1.694420851  -1.432783972   0.643597708
  H    0.382541575  -0.351220325  -1.529896050
  H    1.615656632   1.566136066   0.505099545
  H    1.281526419   1.926392905  -1.187477581
  H    2.510841067   0.744079709  -0.768734894
  H    1.053810434  -0.880640188   1.403916884
  H    2.002861219  -1.456667062   0.037425988
  H    0.364443576  -2.043764675   0.273362621
