8
charge=0 charge_a=0 charge_b=0 selection_a=1-2 selection_b=3-8 scaling=1.00 benchmark_Eint=-0.461 benchmark_unit=kcal/mol group=HBCNO
  H    2.216957488   1.123631257  -2.811995841
  H    2.034071466   0.974125519  -2.108503654
  C   -1.402357316  -0.412761780  -0.663925041
  C   -0.380349139  -0.122108560  -0.099311003
  C    0.779184607   0.208009562   0.535896181
  C    1.805274539   0.500765410   1.092211009
  H   -2.303389908  -0.669009811  -1.161708081
  H    2.709850423   0.758947806   1.582533391
