17
charge=0 charge_a=0 charge_b=0 selection_a=1-2 selection_b=3-17 scaling=2.00 benchmark_Eint=-0.048 benchmark_unit=kcal/mol group=HBCNO
  H   -1.953592303   1.735126891  -2.215535759
  H   -2.371403017   2.228965082  -2.580419333
  C    1.975506558  -2.194925095   3.186196844
  C    1.081375286  -0.968740732   2.837295657
  C    1.929507015  -0.395185485   1.687154204
  C    2.438647867  -1.426673518   1.021965616
  C    1.940631711  -2.707401438   1.716441786
  C    0.412624524  -2.758226166   1.534292889
  C   -0.097291512  -1.727257502   2.199690773
  H    1.507282518  -2.880083765   3.890119675
  H    2.973360337  -1.916492912   3.519294528
  H    0.829994262  -0.278962351   3.635908086
  H    2.020593553   0.654393757   1.459133215
  H    3.039529469  -1.410454631   0.127056386
  H    2.480573817  -3.618847300   1.482782239
  H   -0.106671430  -3.478214173   0.922629880
  H   -1.127370691  -1.414591901   2.255277218
