22
charge=0 charge_a=0 charge_b=0 selection_a=1-2 selection_b=3-22 scaling=0.95 benchmark_Eint=-0.348 benchmark_unit=kcal/mol group=HBCNO
  H   -1.914261894   4.030191099  -3.263884393
  H   -1.651682830   3.506711537  -2.808516291
  C   -0.256167599  -1.011780432  -0.688856394
  C    0.000799796   0.393416730  -0.103614874
  C    1.505054738   0.682022043  -0.023099886
  C   -0.652460222   1.421748942  -1.035746943
  C   -0.621223456   0.522794257   1.292373525
  C    0.318557036  -2.190676112   0.093292579
  H    0.144093569  -1.032113967  -1.705993085
  H   -1.336947768  -1.144106485  -0.786770319
  H    2.008866809   0.009361682   0.669752418
  H    1.976888843   0.573936944  -1.000951578
  H    1.681615590   1.701489662   0.321879008
  H   -1.727231986   1.251922610  -1.114467260
  H   -0.229772224   1.363244631  -2.039784113
  H   -0.499529297   2.436469580  -0.666004336
  H   -1.689094608   0.300264077   1.266908930
  H   -0.153634151  -0.153358676   2.006885011
  H   -0.500650348   1.537712907   1.673039018
  H    1.403381542  -2.133670402   0.174416287
  H   -0.088525515  -2.245575802   1.102234952
  H    0.078888083  -3.129687139  -0.405281063
