22
charge=0 charge_a=0 charge_b=0 selection_a=1-2 selection_b=3-22 scaling=0.85 benchmark_Eint=-0.092 benchmark_unit=kcal/mol group=HBCNO
  H   -1.914261894   4.030191099  -3.263884393
  H   -1.651682830   3.506711537  -2.808516291
  C   -0.355323722  -0.806524573  -0.848962193
  C   -0.098356327   0.598672589  -0.263720673
  C    1.405898615   0.887277902  -0.183205685
  C   -0.751616345   1.627004801  -1.195852742
  C   -0.720379579   0.728050116   1.132267726
  C    0.219400913  -1.985420253  -0.066813220
  H    0.044937446  -0.826858108  -1.866098884
  H   -1.436103891  -0.938850626  -0.946876118
  H    1.909710686   0.214617541   0.509646619
  H    1.877732720   0.779192803  -1.161057377
  H    1.582459467   1.906745521   0.161773209
  H   -1.826388109   1.457178469  -1.274573059
  H   -0.328928347   1.568500490  -2.199889912
  H   -0.598685420   2.641725439  -0.826110135
  H   -1.788250731   0.505519936   1.106803131
  H   -0.252790274   0.051897183   1.846779212
  H   -0.599806471   1.742968766   1.512933219
  H    1.304225419  -1.928414543   0.014310488
  H   -0.187681638  -2.040319943   0.942129153
  H   -0.020268040  -2.924431280  -0.565386862
