22
charge=0 charge_a=0 charge_b=0 selection_a=1-2 selection_b=3-22 scaling=1.25 benchmark_Eint=-0.207 benchmark_unit=kcal/mol group=HBCNO
  H   -2.079290979   3.559746288  -2.355547763
  H   -2.281729862   4.136433962  -2.776010624
  C   -0.884663891   0.701011569  -0.275619295
  C   -0.375281990  -0.468449799   0.571432135
  C   -1.415337524  -1.592237152   0.562416027
  C    1.016295022  -0.956938711   0.114163401
  C    2.055476228   0.167733994   0.120566888
  C    1.526951532  -2.124786085   0.962753075
  H   -1.887603256   0.992536647   0.036401281
  H   -0.936199012   0.418655893  -1.329660151
  H   -0.248345448   1.579571030  -0.195608115
  H   -0.268629037  -0.115532752   1.603723980
  H   -1.502651517  -2.027853223  -0.435523742
  H   -2.396894846  -1.208720437   0.840918670
  H   -1.167894760  -2.392819442   1.255865661
  H    0.909067666  -1.311255795  -0.917628097
  H    2.142182723   0.606100596   1.117367498
  H    1.808052510   0.966357435  -0.575209628
  H    3.037367158  -0.215955761  -0.156466941
  H    1.580336525  -1.840675658   2.016184837
  H    2.529387310  -2.416702532   0.649693941
  H    0.890969667  -3.003800145   0.885630574
