20
charge=0 charge_a=0 charge_b=0 selection_a=1-2 selection_b=3-20 scaling=0.80 benchmark_Eint=0.074 benchmark_unit=kcal/mol group=HBCNO
  H   -1.699817460   2.236064399  -2.368356551
  H   -1.762600846   2.689707931  -2.951786275
  C   -1.393850652  -0.180827915  -0.874640651
  C   -0.263485176  -1.153512167  -0.531222016
  C    1.102089788  -0.465340238  -0.588474004
  C    1.140897074   0.774114175   0.308159744
  C    0.010778421   1.747295375  -0.034762749
  C   -1.354933226   1.059334823   0.020989872
  H   -2.361088058  -0.678848252  -0.789249137
  H   -1.293307165   0.127554286  -1.919767460
  H   -0.283992785  -2.010467973  -1.206555655
  H   -0.424005873  -1.546958968   0.477252769
  H    1.309231507  -0.166805823  -1.620722257
  H    1.890073540  -1.164010735  -0.302428501
  H    2.107872617   1.272673805   0.222906021
  H    1.041028009   0.463264490   1.352674767
  H    0.172714983   2.142058040  -1.042321367
  H    0.030434904   2.603665563   0.641333343
  H   -2.143176949   1.758329710  -0.264350120
  H   -1.563920484   0.761736610   1.053075135
