4
charge=0 charge_a=0 charge_b=0 selection_a=1-2 selection_b=3-4 scaling=1.10 benchmark_Eint=-0.159 benchmark_unit=kcal/mol group=HBCNO
  N    0.148046572   0.648135462  -0.453788264
  N   -0.152762313  -0.363401955  -0.181097735
  H   -0.036092785  -1.504528863   2.872988264
  H    0.067073044  -1.500280962   3.607453763
