4
charge=0 charge_a=0 charge_b=0 selection_a=1-2 selection_b=3-4 scaling=1.05 benchmark_Eint=-0.170 benchmark_unit=kcal/mol group=HBCNO
  N    0.148046572   0.648135462  -0.453788264
  N   -0.152762313  -0.363401955  -0.181097735
  H   -0.036768271  -1.442279865   2.738342815
  H    0.066397558  -1.438031964   3.472808314
