4
charge=0 charge_a=0 charge_b=0 selection_a=1-2 selection_b=3-4 scaling=1.50 benchmark_Eint=-0.043 benchmark_unit=kcal/mol group=HBCNO
  N    0.148046572   0.648135462  -0.453788264
  N   -0.152762313  -0.363401955  -0.181097735
  H   -0.030688898  -2.002520848   3.950151861
  H    0.072476931  -1.998272947   4.684617360
