24
charge=0 charge_a=0 charge_b=0 selection_a=1-22 selection_b=23-24 scaling=1.10 benchmark_Eint=-0.844 benchmark_unit=kcal/mol group=HBCNO
  C    2.276113004   0.019165321  -0.429124332
  C    1.109599733  -0.925944871  -0.202941618
  C    1.498154353  -2.390482075  -0.236229995
  O    0.498342616  -0.740704393   1.075382728
  O   -0.020625921   0.612409317   1.136838073
  C   -1.031082227   0.745995320   0.136284328
  C   -1.417735415   2.211079797   0.171397166
  C   -2.198314427  -0.198228569   0.363102010
  O   -0.420217036   0.560651550  -1.140573120
  O    0.098022525  -0.793008213  -1.200938830
  H    3.027170958  -0.144450758   0.340373741
  H    1.955127726   1.053361109  -0.392245375
  H    2.714923069  -0.178693650  -1.404677565
  H    2.236217141  -2.586861752   0.537550419
  H    1.928056834  -2.628647859  -1.206170024
  H    0.625109674  -3.015167343  -0.067208436
  H   -1.847946841   2.449050761   1.141245554
  H   -2.155189142   2.409619025  -0.602577870
  H   -0.543789470   2.834735703   0.003329940
  H   -2.640892757   0.003233071   1.336225301
  H   -1.877196426  -1.232555598   0.331048805
  H   -2.946825773  -0.037845446  -0.409837687
  H    3.190303349  -1.262349573   3.452214572
  H    2.558590168  -1.093978269   3.099110504
