16
charge=0 charge_a=0 charge_b=0 selection_a=1-2 selection_b=3-16 scaling=1.05 benchmark_Eint=-0.563 benchmark_unit=kcal/mol group=HBCNO
  H    1.286588844  -0.000000027   3.342416817
  H    1.184175798  -0.000000033   4.077393613
  B    0.798392959   0.000000000   0.057434471
  B   -0.551406139  -0.895581794   0.531522200
  B    0.043059294   0.895409992  -1.157743200
  B    0.043059325  -0.895410002  -1.157743199
  B   -0.551406145   0.895581820   0.531522199
  H    1.908476232  -0.000000003   0.448794642
  H   -0.689469000  -1.721871964   1.359253507
  H    0.452611228   1.722265179  -1.889880233
  H    0.452611247  -1.722265201  -1.889880240
  H   -0.689469054   1.721872030   1.359253488
  H   -1.092644331  -1.351149278  -0.607866164
  H   -1.540718211   0.000000019   0.667881241
  H   -0.643740111  -0.000000010  -1.883023043
  H   -1.092644344   1.351149287  -0.607866169
