16
charge=0 charge_a=0 charge_b=0 selection_a=1-2 selection_b=3-16 scaling=0.95 benchmark_Eint=-0.551 benchmark_unit=kcal/mol group=HBCNO
  H    1.286588844  -0.000000027   3.342416817
  H    1.184175798  -0.000000033   4.077393613
  B    0.888063783  -0.000000002   0.326736451
  B   -0.461735315  -0.895581796   0.800824180
  B    0.132730118   0.895409990  -0.888441220
  B    0.132730149  -0.895410004  -0.888441219
  B   -0.461735321   0.895581818   0.800824179
  H    1.998147056  -0.000000005   0.718096622
  H   -0.599798176  -1.721871966   1.628555487
  H    0.542282052   1.722265177  -1.620578253
  H    0.542282071  -1.722265203  -1.620578260
  H   -0.599798230   1.721872028   1.628555468
  H   -1.002973507  -1.351149280  -0.338564184
  H   -1.451047387   0.000000017   0.937183221
  H   -0.554069287  -0.000000012  -1.613721063
  H   -1.002973520   1.351149285  -0.338564189
