16
charge=0 charge_a=0 charge_b=0 selection_a=1-2 selection_b=3-16 scaling=1.10 benchmark_Eint=-0.520 benchmark_unit=kcal/mol group=HBCNO
  H    1.286588844  -0.000000027   3.342416817
  H    1.184175798  -0.000000033   4.077393613
  B    0.753557547   0.000000001  -0.077216519
  B   -0.596241551  -0.895581793   0.396871210
  B   -0.001776118   0.895409993  -1.292394190
  B   -0.001776087  -0.895410001  -1.292394189
  B   -0.596241557   0.895581821   0.396871209
  H    1.863640820  -0.000000002   0.314143652
  H   -0.734304412  -1.721871963   1.224602517
  H    0.407775816   1.722265180  -2.024531223
  H    0.407775835  -1.722265200  -2.024531230
  H   -0.734304466   1.721872031   1.224602498
  H   -1.137479743  -1.351149277  -0.742517154
  H   -1.585553623   0.000000020   0.533230251
  H   -0.688575523  -0.000000009  -2.017674033
  H   -1.137479756   1.351149288  -0.742517159
