16
charge=0 charge_a=0 charge_b=0 selection_a=1-2 selection_b=3-16 scaling=0.85 benchmark_Eint=-0.183 benchmark_unit=kcal/mol group=HBCNO
  H    1.286588844  -0.000000027   3.342416817
  H    1.184175798  -0.000000033   4.077393613
  B    0.977734607  -0.000000004   0.596038431
  B   -0.372064491  -0.895581798   1.070126160
  B    0.222400942   0.895409988  -0.619139240
  B    0.222400973  -0.895410006  -0.619139239
  B   -0.372064497   0.895581816   1.070126159
  H    2.087817880  -0.000000007   0.987398602
  H   -0.510127352  -1.721871968   1.897857467
  H    0.631952876   1.722265175  -1.351276273
  H    0.631952895  -1.722265205  -1.351276280
  H   -0.510127406   1.721872026   1.897857448
  H   -0.913302683  -1.351149282  -0.069262204
  H   -1.361376563   0.000000015   1.206485201
  H   -0.464398463  -0.000000014  -1.344419083
  H   -0.913302696   1.351149283  -0.069262209
