16
charge=0 charge_a=0 charge_b=0 selection_a=1-2 selection_b=3-16 scaling=0.80 benchmark_Eint=0.298 benchmark_unit=kcal/mol group=HBCNO
  H    1.286588844  -0.000000027   3.342416817
  H    1.184175798  -0.000000033   4.077393613
  B    1.022570019  -0.000000006   0.730689420
  B   -0.327229079  -0.895581800   1.204777149
  B    0.267236354   0.895409986  -0.484488251
  B    0.267236385  -0.895410008  -0.484488250
  B   -0.327229085   0.895581814   1.204777148
  H    2.132653292  -0.000000009   1.122049591
  H   -0.465291940  -1.721871970   2.032508456
  H    0.676788288   1.722265173  -1.216625284
  H    0.676788307  -1.722265207  -1.216625291
  H   -0.465291994   1.721872024   2.032508437
  H   -0.868467271  -1.351149284   0.065388785
  H   -1.316541151   0.000000013   1.341136190
  H   -0.419563051  -0.000000016  -1.209768094
  H   -0.868467284   1.351149281   0.065388780
