14
charge=0 charge_a=0 charge_b=0 selection_a=1-2 selection_b=3-14 scaling=1.05 benchmark_Eint=-0.659 benchmark_unit=kcal/mol group=HBCNO
  H    0.569596655   0.083016051  -2.809773926
  H    0.668118532   0.171646181  -3.539701552
  B   -1.143769095  -0.710587577  -0.051781241
  H   -2.225532285  -1.171316021  -0.235911220
  N    0.015853072  -1.538610134   0.023818151
  H   -0.095939717  -2.531905280  -0.082750713
  B    1.326785075  -1.020572887   0.245611926
  H    2.275816389  -1.736170259   0.305947768
  N    1.449486980   0.393764704   0.388860333
  H    2.363375688   0.783033808   0.543050960
  B    0.333488671   1.280541610   0.323594791
  H    0.466139684   2.456700436   0.447817820
  N   -0.948264968   0.694615977   0.100308226
  H   -1.749766062   1.299074405   0.048118866
