14
charge=0 charge_a=0 charge_b=0 selection_a=1-2 selection_b=3-14 scaling=1.50 benchmark_Eint=-0.163 benchmark_unit=kcal/mol group=HBCNO
  H    0.569596655   0.083016051  -2.809773926
  H    0.668118532   0.171646181  -3.539701552
  B   -1.331735008  -0.827372247   1.356704210
  H   -2.413498198  -1.288100691   1.172574231
  N   -0.172112841  -1.655394804   1.432303602
  H   -0.283905630  -2.648689950   1.325734738
  B    1.138819162  -1.137357557   1.654097377
  H    2.087850476  -1.852954929   1.714433219
  N    1.261521067   0.276980034   1.797345784
  H    2.175409775   0.666249138   1.951536411
  B    0.145522758   1.163756940   1.732080242
  H    0.278173771   2.339915766   1.856303271
  N   -1.136230881   0.577831307   1.508793677
  H   -1.937731975   1.182289735   1.456604317
