16
charge=0 charge_a=0 charge_b=0 selection_a=1-2 selection_b=3-16 scaling=0.90 benchmark_Eint=-0.437 benchmark_unit=kcal/mol group=HBCNO
  H    1.286588844  -0.000000027   3.342416817
  H    1.184175798  -0.000000033   4.077393613
  B    0.932899195  -0.000000003   0.461387441
  B   -0.416899903  -0.895581797   0.935475170
  B    0.177565530   0.895409989  -0.753790230
  B    0.177565561  -0.895410005  -0.753790229
  B   -0.416899909   0.895581817   0.935475169
  H    2.042982468  -0.000000006   0.852747612
  H   -0.554962764  -1.721871967   1.763206477
  H    0.587117464   1.722265176  -1.485927263
  H    0.587117483  -1.722265204  -1.485927270
  H   -0.554962818   1.721872027   1.763206458
  H   -0.958138095  -1.351149281  -0.203913194
  H   -1.406211975   0.000000016   1.071834211
  H   -0.509233875  -0.000000013  -1.479070073
  H   -0.958138108   1.351149284  -0.203913199
