28
charge=0 charge_a=0 charge_b=0 selection_a=1-11 selection_b=12-28 scaling=1.25 benchmark_Eint=-1.593 benchmark_unit=kcal/mol group=HBCNO
  C    1.169440910   2.527271818   0.175793725
  C   -0.049553587   2.421169867   1.044168005
  C   -1.107791623   2.105405927   0.279659653
  C   -0.677953275   1.982136888  -1.114518233
  C    0.640519416   2.223794804  -1.194950135
  H    1.948538807   1.819844459   0.477566226
  H    1.625667912   3.521142816   0.229260199
  H   -0.046285268   2.578304005   2.110622767
  H   -2.120719861   1.959772217   0.622258935
  H   -1.331524648   1.730777158  -1.935436459
  H    1.247849387   2.206141921  -2.085385644
  C   -1.211652172  -2.321019208  -0.386746689
  C    0.050523829  -2.944396533   0.220654957
  C   -0.295740398  -3.586610993   1.569024714
  C    0.601025857  -4.014037993  -0.729520076
  C    1.107115530  -1.853631268   0.431479137
  H   -1.980709737  -3.077567102  -0.549557832
  H   -0.991425489  -1.849604775  -1.344791023
  H   -1.622313647  -1.555190819   0.271222526
  H   -1.049327779  -4.366435947   1.449823769
  H   -0.688614858  -2.844055939   2.264845529
  H    0.585964502  -4.039540938   2.024734279
  H   -0.131938617  -4.804606013  -0.896898113
  H    1.502343008  -4.473652716  -0.321326268
  H    0.854816087  -3.581805102  -1.698432644
  H    0.734902973  -1.077840700   1.100268647
  H    1.368741454  -1.377364200  -0.513416238
  H    2.016882968  -2.271282977   0.865601826
