33
charge=0 charge_a=0 charge_b=0 selection_a=1-15 selection_b=16-33 scaling=1.10 benchmark_Eint=-2.778 benchmark_unit=kcal/mol group=HBCNO
  C   -2.318100000   0.034730000   1.181680000
  C   -2.675250000   1.189950000   0.241820000
  C   -2.539990000  -1.208090000   0.311510000
  C   -2.087660000   0.763400000  -1.115730000
  C   -2.084710000  -0.788630000  -1.105310000
  H   -1.268950000   0.105560000   1.474100000
  H   -2.911010000   0.025780000   2.095610000
  H   -3.761540000   1.277320000   0.170140000
  H   -2.294830000   2.152920000   0.580690000
  H   -2.007700000  -2.084260000   0.679450000
  H   -3.602150000  -1.458610000   0.303490000
  H   -2.652200000   1.170760000  -1.952760000
  H   -1.068990000   1.138240000  -1.212280000
  H   -1.085770000  -1.167690000  -1.316770000
  H   -2.741860000  -1.200110000  -1.869570000
  C    1.830098460   1.274739352   0.755452161
  C    2.085238460   0.002949352   1.567152161
  C    1.779988460  -1.256300648   0.753132161
  C    2.548138460  -1.269040648  -0.570227839
  C    2.286278460   0.001189352  -1.382057839
  C    2.597438460   1.259209352  -0.568397839
  H    2.102098460   2.155569352   1.339512161
  H    0.760408460   1.358969352   0.547062161
  H    1.490308460   0.013799352   2.482232161
  H    3.134148460  -0.017910648   1.878342161
  H    0.708268460  -1.297260648   0.544112161
  H    2.016378460  -2.148190648   1.335922161
  H    2.280388460  -2.151950648  -1.153247839
  H    3.619748460  -1.345830648  -0.362007839
  H    1.236318460   0.021729352  -1.686777839
  H    2.875378460  -0.009550648  -2.300637839
  H    2.364148460   2.152679352  -1.150117839
  H    3.671308460   1.293879352  -0.360487839
