24
charge=0 charge_a=0 charge_b=0 selection_a=1-6 selection_b=7-24 scaling=1.25 benchmark_Eint=-2.205 benchmark_unit=kcal/mol group=HBCNO
  C    1.863376164   0.830961683  -0.365347167
  C    2.239631084   0.788631466   0.776428516
  C    2.653805464   0.735308440   2.073302405
  C    3.019303462   0.688172978   3.219166374
  H    1.496574176   0.852223928  -1.361143973
  H    3.341740867   0.646816990   4.228568022
  C   -1.858101906  -0.319542764   1.929067571
  C   -1.335746981  -1.609688143   1.698069453
  C   -1.156815227  -2.064232209   0.419780924
  C   -1.479102998  -1.248639418  -0.689607660
  C   -1.261784789  -1.668776657  -2.022368465
  C   -1.541815176  -0.838490348  -3.075991604
  C   -2.064419576   0.452048117  -2.844903847
  C   -2.295622294   0.884255100  -1.565207358
  C   -2.007277718   0.055606447  -0.456071701
  C   -2.191029517   0.489901333   0.877121220
  H   -1.987386582   0.029337724   2.943549140
  H   -1.070517654  -2.235576907   2.538028062
  H   -0.748942702  -3.049689979   0.240202224
  H   -0.857942861  -2.656977396  -2.196611905
  H   -1.365342374  -1.169753777  -4.089543067
  H   -2.283469024   1.097729092  -3.683517059
  H   -2.692693440   1.874165707  -1.385211426
  H   -2.583880191   1.482329011   1.051701371
