34
charge=0 charge_a=0 charge_b=0 selection_a=1-17 selection_b=18-34 scaling=0.85 benchmark_Eint=-0.789 benchmark_unit=kcal/mol group=HBCNO
  C   -2.083840000  -0.916940000  -1.118130000
  C   -2.593880000   0.000030000  -0.000030000
  C   -2.083780000   1.426840000  -0.234750000
  C   -4.127020000   0.000200000  -0.000390000
  C   -2.084460000  -0.510090000   1.353270000
  H   -2.433960000  -0.576110000  -2.093450000
  H   -2.434290000  -1.940020000  -0.974960000
  H   -0.994200000  -0.938050000  -1.143510000
  H   -2.433760000   1.814400000  -1.192510000
  H   -0.994140000   1.459510000  -0.239760000
  H   -2.434340000   2.101010000   0.547940000
  H   -4.517960000   0.359550000  -0.953340000
  H   -4.518300000   0.645770000   0.787140000
  H   -4.518320000  -1.004630000   0.164780000
  H   -0.994830000  -0.522070000   1.384530000
  H   -2.435050000  -1.525040000   1.545590000
  H   -2.434830000   0.125520000   2.167670000
  C    1.712163975   0.509750624  -1.353190734
  C    2.222163975  -0.000029376   0.000029266
  C    1.712283975  -1.426839376   0.235259266
  C    3.755293975  -0.000049376  -0.000180734
  C    1.712453975   0.917130624   1.118129266
  H    2.062363975  -0.125969376  -2.167580734
  H    2.062523975   1.524720624  -1.545840734
  H    0.622533975   0.521530624  -1.384070734
  H    2.062623975  -2.101149376  -0.547420734
  H    0.622643975  -1.459589376   0.240659266
  H    2.062633975  -1.814149376   1.192979266
  H    4.146343975  -0.645749376  -0.787720734
  H    4.146623975  -0.359139376   0.952709266
  H    4.146423975   1.004780624  -0.165730734
  H    0.622823975   0.938110624   1.143929266
  H    2.062723975   1.940220624   0.974589266
  H    2.062993975   0.576560624   2.093389266
