34
charge=0 charge_a=0 charge_b=0 selection_a=1-17 selection_b=18-34 scaling=1.50 benchmark_Eint=-0.710 benchmark_unit=kcal/mol group=HBCNO
  C   -2.083840000  -0.916940000  -1.118130000
  C   -2.593880000   0.000030000  -0.000030000
  C   -2.083780000   1.426840000  -0.234750000
  C   -4.127020000   0.000200000  -0.000390000
  C   -2.084460000  -0.510090000   1.353270000
  H   -2.433960000  -0.576110000  -2.093450000
  H   -2.434290000  -1.940020000  -0.974960000
  H   -0.994200000  -0.938050000  -1.143510000
  H   -2.433760000   1.814400000  -1.192510000
  H   -0.994140000   1.459510000  -0.239760000
  H   -2.434340000   2.101010000   0.547940000
  H   -4.517960000   0.359550000  -0.953340000
  H   -4.518300000   0.645770000   0.787140000
  H   -4.518320000  -1.004630000   0.164780000
  H   -0.994830000  -0.522070000   1.384530000
  H   -2.435050000  -1.525040000   1.545590000
  H   -2.434830000   0.125520000   2.167670000
  C    3.322976750   0.509747921  -1.353187554
  C    3.832976750  -0.000032079   0.000032446
  C    3.323096750  -1.426842079   0.235262446
  C    5.366106750  -0.000052079  -0.000177554
  C    3.323266750   0.917127921   1.118132446
  H    3.673176750  -0.125972079  -2.167577554
  H    3.673336750   1.524717921  -1.545837554
  H    2.233346750   0.521527921  -1.384067554
  H    3.673436750  -2.101152079  -0.547417554
  H    2.233456750  -1.459592079   0.240662446
  H    3.673446750  -1.814152079   1.192982446
  H    5.757156750  -0.645752079  -0.787717554
  H    5.757436750  -0.359142079   0.952712446
  H    5.757236750   1.004777921  -0.165727554
  H    2.233636750   0.938107921   1.143932446
  H    3.673536750   1.940217921   0.974592446
  H    3.673806750   0.576557921   2.093392446
