16
charge=0 charge_a=0 charge_b=0 selection_a=1-6 selection_b=7-16 scaling=1.25 benchmark_Eint=-1.220 benchmark_unit=kcal/mol group=HBCNO
  C   -1.146558564   0.352125001  -1.661218137
  C   -0.027818073   0.006806529  -1.937066956
  C    1.243350870  -0.389617924  -2.225263256
  C    2.367910334  -0.742938393  -2.468310348
  H   -2.127872675   0.654677993  -1.395709042
  H    3.358672379  -1.052751185  -2.686530281
  C    0.971371716   0.190874197   2.328680872
  C   -0.264002361   0.184685896   2.829500743
  C   -1.324185325  -0.690770743   2.365192433
  C   -2.566815248  -0.686863149   2.849904308
  H    1.730150609   0.862454418   2.702671627
  H    1.256476676  -0.471034050   1.522202317
  H   -0.519927760   0.868977670   3.631684757
  H   -1.063831882  -1.378783995   1.569279746
  H   -2.860483224  -0.010414007   3.642229675
  H   -3.324017887  -1.359462230   2.474317967
