26
charge=0 charge_a=0 charge_b=0 selection_a=1-15 selection_b=16-26 scaling=0.90 benchmark_Eint=-2.237 benchmark_unit=kcal/mol group=HBCNO
  C    0.663008868  -0.282524307  -1.632434922
  C   -0.803217243  -0.291771442  -2.083141330
  C    0.902914824   1.141163458  -1.076901648
  C   -1.496124342   0.588760767  -1.039620326
  C   -0.504753344   1.743806575  -0.819958896
  H    0.801114732  -1.019511681  -0.840671044
  H    1.354461337  -0.541661530  -2.432711344
  H   -0.895122925   0.164816969  -3.071631332
  H   -1.222480499  -1.295323707  -2.146488771
  H    1.500394956   1.111169005  -0.167709423
  H    1.453713699   1.749733203  -1.792670490
  H   -2.481642800   0.932501884  -1.351175482
  H   -1.625787334   0.022539062  -0.115858722
  H   -0.593946285   2.181954184   0.172928030
  H   -0.705645371   2.541376965  -1.535659105
  C    1.741742329  -0.715279295   2.032116644
  C    0.242768209  -0.463280715   2.168510382
  C   -0.596822836  -1.687037230   1.812026974
  H    2.322463608   0.169604269   2.292407621
  H    2.000768427  -0.993483468   1.009668953
  H    2.063057728  -1.528493108   2.684764262
  H   -0.044365474   0.373366234   1.529704645
  H    0.017583245  -0.154035801   3.191543518
  H   -0.413747240  -2.002118810   0.783881784
  H   -1.663292609  -1.484879817   1.911311858
  H   -0.355550676  -2.529886386   2.461535698
