26
charge=0 charge_a=0 charge_b=0 selection_a=1-15 selection_b=16-26 scaling=1.10 benchmark_Eint=-2.317 benchmark_unit=kcal/mol group=HBCNO
  C    0.663008868  -0.282524307  -1.632434922
  C   -0.803217243  -0.291771442  -2.083141330
  C    0.902914824   1.141163458  -1.076901648
  C   -1.496124342   0.588760767  -1.039620326
  C   -0.504753344   1.743806575  -0.819958896
  H    0.801114732  -1.019511681  -0.840671044
  H    1.354461337  -0.541661530  -2.432711344
  H   -0.895122925   0.164816969  -3.071631332
  H   -1.222480499  -1.295323707  -2.146488771
  H    1.500394956   1.111169005  -0.167709423
  H    1.453713699   1.749733203  -1.792670490
  H   -2.481642800   0.932501884  -1.351175482
  H   -1.625787334   0.022539062  -0.115858722
  H   -0.593946285   2.181954184   0.172928030
  H   -0.705645371   2.541376965  -1.535659105
  C    1.833904033  -0.914878457   2.461709220
  C    0.334929913  -0.662879877   2.598102958
  C   -0.504661132  -1.886636392   2.241619550
  H    2.414625312  -0.029994893   2.722000197
  H    2.092930131  -1.193082630   1.439261529
  H    2.155219432  -1.728092270   3.114356838
  H    0.047796230   0.173767072   1.959297221
  H    0.109744949  -0.353634963   3.621136094
  H   -0.321585536  -2.201717972   1.213474360
  H   -1.571130905  -1.684478979   2.340904434
  H   -0.263388972  -2.729485548   2.891128274
