24
charge=0 charge_a=0 charge_b=0 selection_a=1-7 selection_b=8-24 scaling=0.85 benchmark_Eint=-1.298 benchmark_unit=kcal/mol group=HBCNO
  C   -1.047599123   2.342787152  -0.147910046
  C   -1.633436015   1.417981611  -0.634197879
  C   -2.338928708   0.292824198  -1.223843411
  H   -0.525171798   3.158619903   0.283134539
  H   -3.312397755   0.599721360  -1.606246474
  H   -2.497226181  -0.495764837  -0.488649509
  H   -1.770050180  -0.131545921  -2.051117142
  C   -0.550806484  -2.709425590  -0.414528174
  C   -0.134733205  -1.651184535   0.603141182
  C    0.877691659  -0.652091674   0.050616343
  C    1.308726962   0.400007700   1.067908929
  C    2.273898648   1.428151472   0.485822333
  H   -1.282358781  -3.402480307   0.001233383
  H    0.309144872  -3.293571505  -0.745271527
  H   -0.992948689  -2.251098506  -1.300373791
  H    0.285534504  -2.140205960   1.485925648
  H   -1.015870613  -1.106597626   0.952343130
  H    0.449182393  -0.148061247  -0.819763668
  H    1.758757941  -1.191418754  -0.311188234
  H    1.770289184  -0.095292682   1.926467762
  H    0.419648575   0.909070128   1.445612192
  H    3.182786840   0.950705885   0.115996694
  H    2.568334875   2.168753314   1.229765396
  H    1.815628063   1.957433345  -0.350587398
