31
charge=0 charge_a=0 charge_b=0 selection_a=1-11 selection_b=12-31 scaling=1.25 benchmark_Eint=-1.913 benchmark_unit=kcal/mol group=HBCNO
  C    2.570496267   0.822713317  -1.343610305
  C    1.790076838  -0.394117480  -1.744679366
  C    0.560784667  -0.019668147  -2.134539645
  C    0.439044991   1.434950910  -2.020577186
  C    1.595172025   1.942029980  -1.561798038
  H    3.475939534   0.945677599  -1.946915222
  H    2.904970999   0.768998428  -0.302887749
  H    2.179448725  -1.398691092  -1.711286142
  H   -0.226178747  -0.674360834  -2.475844083
  H   -0.450033663   1.995079365  -2.265268427
  H    1.815509609   2.979936178  -1.371701930
  C   -2.585587853   0.444585393   1.026885957
  C   -2.352904623  -0.656540967   2.065021879
  C   -3.428637689  -1.734839650   1.907255839
  C   -0.924753605  -1.237801707   1.986506864
  C    0.145913849  -0.161239253   2.179514421
  C   -0.701305310  -2.365615924   2.997654193
  H   -3.604416072   0.826531064   1.095283547
  H   -2.444796148   0.053585464   0.017659716
  H   -1.907623826   1.285376918   1.151527583
  H   -2.465386815  -0.211850605   3.060734513
  H   -3.305036061  -2.265691469   0.960456886
  H   -4.422867404  -1.287725697   1.906231959
  H   -3.400833628  -2.470159964   2.708349054
  H   -0.799713976  -1.653179593   0.981138913
  H    0.021199463   0.337306987   3.143668390
  H    0.116191592   0.594922746   1.399861749
  H    1.140107251  -0.608000750   2.166057064
  H   -0.888279495  -2.015101079   4.015401852
  H    0.329536184  -2.717878315   2.955761779
  H   -1.347233299  -3.221823410   2.815603275
