35
charge=0 charge_a=0 charge_b=0 selection_a=1-20 selection_b=21-35 scaling=2.00 benchmark_Eint=-0.273 benchmark_unit=kcal/mol group=HBCNO
  C    1.098210580  -0.560578316  -1.715736372
  C    0.517852420   0.835464171  -1.957894645
  C   -0.414141856   1.206997242  -0.801678816
  C    1.619498770   1.893301645  -2.183201890
  C    2.548857928   1.526258838  -3.343435783
  C    1.040119458   3.290830088  -2.419142402
  H    0.302047251  -1.273540655  -1.507962759
  H    1.765171559  -0.555511514  -0.850609110
  H    1.661863943  -0.930101921  -2.569700397
  H   -0.081098070   0.795209918  -2.875298873
  H    0.153186871   1.354237416   0.119189875
  H   -1.133855514   0.412919672  -0.611779426
  H   -0.972715090   2.119673586  -0.997971304
  H    2.221258197   1.928561286  -1.267344024
  H    1.980266988   1.406443138  -4.268481621
  H    3.092357202   0.601307089  -3.163705314
  H    3.285217023   2.312741380  -3.509522101
  H    0.370639399   3.288875362  -3.282371589
  H    1.836079964   4.007633622  -2.621694669
  H    0.478695194   3.656740439  -1.562465269
  C   -1.368945134  -2.439518974   3.971114988
  C    0.080659583  -2.311804085   4.348889280
  C   -2.311421251  -1.525108122   4.439200628
  C   -3.641418791  -1.606417399   4.049582782
  C   -4.054814756  -2.611415690   3.183498498
  C   -3.127720688  -3.535017096   2.717766470
  C   -1.798281589  -3.448015812   3.110957925
  H    0.196375456  -1.931544998   5.362847447
  H    0.593307799  -1.617345421   3.679548104
  H    0.595562984  -3.268612931   4.281806840
  H   -1.997873372  -0.736925634   5.111088519
  H   -4.355223893  -0.884776887   4.421446698
  H   -5.089486764  -2.676420336   2.878526543
  H   -3.439051731  -4.324325974   2.047822095
  H   -1.081923485  -4.168770159   2.740133460
