29
charge=0 charge_a=0 charge_b=0 selection_a=1-17 selection_b=18-29 scaling=0.95 benchmark_Eint=-2.691 benchmark_unit=kcal/mol group=HBCNO
  C   -0.069710655   1.783976874  -0.715744905
  C    1.376993676   1.652232106  -1.205953365
  C    1.816696690   2.962234281  -1.869429829
  C    2.293474443   1.349595018  -0.014362629
  C    1.468471465   0.507833924  -2.222537875
  H   -0.162457875   2.592650852   0.010862063
  H   -0.408538461   0.865244315  -0.240420187
  H   -0.743649956   2.001663573  -1.545763166
  H    1.760718686   3.794508449  -1.166258616
  H    1.179841987   3.201399670  -2.722339170
  H    2.845100929   2.894886993  -2.227597675
  H    2.248693020   2.150479889   0.725175392
  H    3.331346659   1.247383003  -0.335153747
  H    1.997433854   0.423239660   0.477118839
  H    0.826468158   0.698973959  -3.083722823
  H    1.155512899  -0.434815732  -1.774382679
  H    2.490218587   0.388397332  -2.586285732
  C    0.258556426  -1.990017919   0.535337474
  C   -0.797241349  -2.079790599  -0.363973891
  C   -2.019991810  -1.492796968  -0.060889207
  C   -2.186754682  -0.815780188   1.141510439
  C   -1.130594944  -0.725366316   2.040515845
  C    0.091986401  -1.312676815   1.737416055
  H    1.210874422  -2.442575203   0.297625995
  H   -0.666076171  -2.602261808  -1.300969769
  H   -2.839916336  -1.559370811  -0.761916519
  H   -3.136420726  -0.355829826   1.375475530
  H   -1.258815397  -0.195090705   2.973525748
  H    0.914508687  -1.238914274   2.434660877
