19
charge=0 charge_a=0 charge_b=0 selection_a=1-4 selection_b=5-19 scaling=0.90 benchmark_Eint=-1.194 benchmark_unit=kcal/mol group=HBCNO
  C   -2.306908112  -1.292211914  -0.702114044
  C   -1.938889143  -0.841941030  -1.746303009
  H   -2.629948324  -1.689888379   0.227087651
  H   -1.612037121  -0.442447998  -2.673447094
  C    0.070556134   1.500842285   0.098564797
  C   -0.259343503   0.554071521   1.269722363
  C    1.440493729   1.027919194  -0.398592849
  C    0.562783590  -0.739675298   1.016057556
  C    1.338552158  -0.497228276  -0.293913678
  H   -0.666467268   1.374002288  -0.695783918
  H    0.058289687   2.550305263   0.389994279
  H    0.032680599   1.007273206   2.216846054
  H   -1.327791465   0.355087117   1.330331322
  H    1.674486890   1.374159256  -1.405035105
  H    2.226659944   1.396419387   0.265299517
  H    1.255212212  -0.914321589   1.839325720
  H   -0.072060477  -1.620990765   0.944226017
  H    0.763616287  -0.880445805  -1.138239453
  H    2.307646011  -0.994375251  -0.306901687
