29
charge=0 charge_a=0 charge_b=0 selection_a=1-17 selection_b=18-29 scaling=0.85 benchmark_Eint=-0.790 benchmark_unit=kcal/mol group=HBCNO
  C   -0.069710655   1.783976874  -0.715744905
  C    1.376993676   1.652232106  -1.205953365
  C    1.816696690   2.962234281  -1.869429829
  C    2.293474443   1.349595018  -0.014362629
  C    1.468471465   0.507833924  -2.222537875
  H   -0.162457875   2.592650852   0.010862063
  H   -0.408538461   0.865244315  -0.240420187
  H   -0.743649956   2.001663573  -1.545763166
  H    1.760718686   3.794508449  -1.166258616
  H    1.179841987   3.201399670  -2.722339170
  H    2.845100929   2.894886993  -2.227597675
  H    2.248693020   2.150479889   0.725175392
  H    3.331346659   1.247383003  -0.335153747
  H    1.997433854   0.423239660   0.477118839
  H    0.826468158   0.698973959  -3.083722823
  H    1.155512899  -0.434815732  -1.774382679
  H    2.490218587   0.388397332  -2.586285732
  C    0.415841605  -1.784845022   0.398021003
  C   -0.639956170  -1.874617702  -0.501290362
  C   -1.862706631  -1.287624071  -0.198205678
  C   -2.029469503  -0.610607291   1.004193968
  C   -0.973309765  -0.520193419   1.903199374
  C    0.249271580  -1.107503918   1.600099584
  H    1.368159601  -2.237402306   0.160309524
  H   -0.508790992  -2.397088911  -1.438286240
  H   -2.682631157  -1.354197914  -0.899232990
  H   -2.979135547  -0.150656929   1.238159059
  H   -1.101530218   0.010082192   2.836209277
  H    1.071793866  -1.033741377   2.297344406
