34
charge=0 charge_a=0 charge_b=0 selection_a=1-17 selection_b=18-34 scaling=0.80 benchmark_Eint=0.125 benchmark_unit=kcal/mol group=HBCNO
  C   -2.083840000  -0.916940000  -1.118130000
  C   -2.593880000   0.000030000  -0.000030000
  C   -2.083780000   1.426840000  -0.234750000
  C   -4.127020000   0.000200000  -0.000390000
  C   -2.084460000  -0.510090000   1.353270000
  H   -2.433960000  -0.576110000  -2.093450000
  H   -2.434290000  -1.940020000  -0.974960000
  H   -0.994200000  -0.938050000  -1.143510000
  H   -2.433760000   1.814400000  -1.192510000
  H   -0.994140000   1.459510000  -0.239760000
  H   -2.434340000   2.101010000   0.547940000
  H   -4.517960000   0.359550000  -0.953340000
  H   -4.518300000   0.645770000   0.787140000
  H   -4.518320000  -1.004630000   0.164780000
  H   -0.994830000  -0.522070000   1.384530000
  H   -2.435050000  -1.525040000   1.545590000
  H   -2.434830000   0.125520000   2.167670000
  C    1.588255300   0.509750832  -1.353190978
  C    2.098255300  -0.000029168   0.000029022
  C    1.588375300  -1.426839168   0.235259022
  C    3.631385300  -0.000049168  -0.000180978
  C    1.588545300   0.917130832   1.118129022
  H    1.938455300  -0.125969168  -2.167580978
  H    1.938615300   1.524720832  -1.545840978
  H    0.498625300   0.521530832  -1.384070978
  H    1.938715300  -2.101149168  -0.547420978
  H    0.498735300  -1.459589168   0.240659022
  H    1.938725300  -1.814149168   1.192979022
  H    4.022435300  -0.645749168  -0.787720978
  H    4.022715300  -0.359139168   0.952709022
  H    4.022515300   1.004780832  -0.165730978
  H    0.498915300   0.938110832   1.143929022
  H    1.938815300   1.940220832   0.974589022
  H    1.939085300   0.576560832   2.093389022
