32
charge=0 charge_a=0 charge_b=0 selection_a=1-17 selection_b=18-32 scaling=0.90 benchmark_Eint=-2.080 benchmark_unit=kcal/mol group=HBCNO
  C   -1.307169998  -1.527518703  -0.776894199
  C   -0.907494672  -0.714515092  -2.013935521
  C    0.620519084  -0.609769377  -2.088197515
  C   -1.432033878  -1.412398316  -3.274185411
  C   -1.513027711   0.691021885  -1.919072020
  H   -0.883399305  -2.531948490  -0.815038314
  H   -2.391479496  -1.623754182  -0.706929635
  H   -0.954654223  -1.050547302   0.136715499
  H    1.077411964  -1.598097893  -2.154325495
  H    1.023881958  -0.113813688  -1.205515119
  H    0.930566660  -0.037995713  -2.963872864
  H   -1.017149234  -2.417074246  -3.366261566
  H   -1.161515078  -0.854662566  -4.171792281
  H   -2.519072834  -1.499904299  -3.248927257
  H   -1.157889642   1.212540405  -1.029941301
  H   -2.601610069   0.644622931  -1.866986729
  H   -1.244607171   1.291927494  -2.788965537
  C    2.037662498   0.871557464   1.613059737
  C    1.426544870  -0.515259828   1.831440892
  C    0.838528552   1.732913363   1.186933008
  C    0.093849734  -0.211119517   2.529712893
  C   -0.384733092   1.134065686   1.927810793
  H    2.450572350   1.241492476   2.554351700
  H    2.843575090   0.876984230   0.880038873
  H    1.245601247  -0.993785375   0.867079017
  H    2.065520867  -1.181401368   2.409911044
  H    0.983842263   2.788842550   1.408792584
  H    0.697665562   1.654272195   0.108742997
  H   -0.637649947  -1.008088360   2.404339465
  H    0.262855192  -0.100602120   3.601653312
  H   -0.744036692   1.802900211   2.708149165
  H   -1.215986340   0.983945376   1.240586936
