34
charge=0 charge_a=0 charge_b=0 selection_a=1-17 selection_b=18-34 scaling=0.90 benchmark_Eint=-1.342 benchmark_unit=kcal/mol group=HBCNO
  C   -2.083840000  -0.916940000  -1.118130000
  C   -2.593880000   0.000030000  -0.000030000
  C   -2.083780000   1.426840000  -0.234750000
  C   -4.127020000   0.000200000  -0.000390000
  C   -2.084460000  -0.510090000   1.353270000
  H   -2.433960000  -0.576110000  -2.093450000
  H   -2.434290000  -1.940020000  -0.974960000
  H   -0.994200000  -0.938050000  -1.143510000
  H   -2.433760000   1.814400000  -1.192510000
  H   -0.994140000   1.459510000  -0.239760000
  H   -2.434340000   2.101010000   0.547940000
  H   -4.517960000   0.359550000  -0.953340000
  H   -4.518300000   0.645770000   0.787140000
  H   -4.518320000  -1.004630000   0.164780000
  H   -0.994830000  -0.522070000   1.384530000
  H   -2.435050000  -1.525040000   1.545590000
  H   -2.434830000   0.125520000   2.167670000
  C    1.836072650   0.509750416  -1.353190489
  C    2.346072650  -0.000029584   0.000029511
  C    1.836192650  -1.426839584   0.235259511
  C    3.879202650  -0.000049584  -0.000180489
  C    1.836362650   0.917130416   1.118129511
  H    2.186272650  -0.125969584  -2.167580489
  H    2.186432650   1.524720416  -1.545840489
  H    0.746442650   0.521530416  -1.384070489
  H    2.186532650  -2.101149584  -0.547420489
  H    0.746552650  -1.459589584   0.240659511
  H    2.186542650  -1.814149584   1.192979511
  H    4.270252650  -0.645749584  -0.787720489
  H    4.270532650  -0.359139584   0.952709511
  H    4.270332650   1.004780416  -0.165730489
  H    0.746732650   0.938110416   1.143929511
  H    2.186632650   1.940220416   0.974589511
  H    2.186902650   0.576560416   2.093389511
