32
charge=0 charge_a=0 charge_b=0 selection_a=1-17 selection_b=18-32 scaling=0.85 benchmark_Eint=-1.436 benchmark_unit=kcal/mol group=HBCNO
  C   -1.307169998  -1.527518703  -0.776894199
  C   -0.907494672  -0.714515092  -2.013935521
  C    0.620519084  -0.609769377  -2.088197515
  C   -1.432033878  -1.412398316  -3.274185411
  C   -1.513027711   0.691021885  -1.919072020
  H   -0.883399305  -2.531948490  -0.815038314
  H   -2.391479496  -1.623754182  -0.706929635
  H   -0.954654223  -1.050547302   0.136715499
  H    1.077411964  -1.598097893  -2.154325495
  H    1.023881958  -0.113813688  -1.205515119
  H    0.930566660  -0.037995713  -2.963872864
  H   -1.017149234  -2.417074246  -3.366261566
  H   -1.161515078  -0.854662566  -4.171792281
  H   -2.519072834  -1.499904299  -3.248927257
  H   -1.157889642   1.212540405  -1.029941301
  H   -2.601610069   0.644622931  -1.866986729
  H   -1.244607171   1.291927494  -2.788965537
  C    1.991026775   0.835605361   1.508494416
  C    1.379909147  -0.551211931   1.726875571
  C    0.791892829   1.696961260   1.082367687
  C    0.047214011  -0.247071620   2.425147572
  C   -0.431368815   1.098113583   1.823245472
  H    2.403936627   1.205540373   2.449786379
  H    2.796939367   0.841032127   0.775473552
  H    1.198965524  -1.029737478   0.762513696
  H    2.018885144  -1.217353471   2.305345723
  H    0.937206540   2.752890447   1.304227263
  H    0.651029839   1.618320092   0.004177676
  H   -0.684285670  -1.044040463   2.299774144
  H    0.216219469  -0.136554223   3.497087991
  H   -0.790672415   1.766948108   2.603583844
  H   -1.262622063   0.947993273   1.136021615
