19
charge=0 charge_a=0 charge_b=0 selection_a=1-4 selection_b=5-19 scaling=0.85 benchmark_Eint=-0.436 benchmark_unit=kcal/mol group=HBCNO
  C   -2.306908112  -1.292211914  -0.702114044
  C   -1.938889143  -0.841941030  -1.746303009
  H   -2.629948324  -1.689888379   0.227087651
  H   -1.612037121  -0.442447998  -2.673447094
  C   -0.045128661   1.440509500   0.032862643
  C   -0.375028298   0.493738736   1.204020209
  C    1.324808934   0.967586409  -0.464295003
  C    0.447098795  -0.800008083   0.950355402
  C    1.222867363  -0.557561061  -0.359615832
  H   -0.782152063   1.313669503  -0.761486072
  H   -0.057395108   2.489972478   0.324292125
  H   -0.083004196   0.946940421   2.151143900
  H   -1.443476260   0.294754332   1.264629168
  H    1.558802095   1.313826471  -1.470737259
  H    2.110975149   1.336086602   0.199597363
  H    1.139527417  -0.974654374   1.773623566
  H   -0.187745272  -1.681323550   0.878523863
  H    0.647931492  -0.940778590  -1.203941607
  H    2.191961216  -1.054708036  -0.372603841
