24
charge=0 charge_a=0 charge_b=0 selection_a=1-6 selection_b=7-24 scaling=1.50 benchmark_Eint=-1.021 benchmark_unit=kcal/mol group=HBCNO
  C    1.863376164   0.830961683  -0.365347167
  C    2.239631084   0.788631466   0.776428516
  C    2.653805464   0.735308440   2.073302405
  C    3.019303462   0.688172978   3.219166374
  H    1.496574176   0.852223928  -1.361143973
  H    3.341740867   0.646816990   4.228568022
  C   -2.531717367  -0.537538204   1.605415957
  C   -2.009362442  -1.827683583   1.374417839
  C   -1.830430688  -2.282227649   0.096129310
  C   -2.152718459  -1.466634858  -1.013259274
  C   -1.935400250  -1.886772097  -2.346020079
  C   -2.215430637  -1.056485788  -3.399643218
  C   -2.738035037   0.234052677  -3.168555461
  C   -2.969237755   0.666259660  -1.888858972
  C   -2.680893179  -0.162388993  -0.779723315
  C   -2.864644978   0.271905893   0.553469606
  H   -2.661002043  -0.188657716   2.619897526
  H   -1.744133115  -2.453572347   2.214376448
  H   -1.422558163  -3.267685419  -0.083449390
  H   -1.531558322  -2.874972836  -2.520263519
  H   -2.038957835  -1.387749217  -4.413194681
  H   -2.957084485   0.879733652  -4.007168673
  H   -3.366308901   1.656170267  -1.708863040
  H   -3.257495652   1.264333571   0.728049757
