17
charge=0 charge_a=0 charge_b=0 selection_a=1-11 selection_b=12-17 scaling=0.80 benchmark_Eint=0.910 benchmark_unit=kcal/mol group=HBCNO
  C   -1.381855958   0.200713968  -0.185839312
  C   -1.147659963  -1.197727562   0.304140829
  C   -0.245338448  -1.797602005  -0.490376739
  C    0.172616769  -0.863317327  -1.538228641
  C   -0.478306036   0.301009001  -1.378661334
  H   -1.129547186   0.945738373   0.575261476
  H   -2.430599919   0.373787501  -0.448159867
  H   -1.638373492  -1.626182060   1.162956355
  H    0.125127791  -2.805913976  -0.386370875
  H    0.892779332  -1.090683997  -2.309111371
  H   -0.385126133   1.182603816  -1.991905916
  C    1.428841137   0.591770421   1.256572955
  C    1.577496565   1.721482787   0.581845480
  H    1.665269494   0.526119179   2.310452175
  H    1.063541969  -0.307910170   0.781578546
  H    1.939892422   2.625325515   1.053431036
  H    1.341347362   1.781300815  -0.471785076
