12
charge=0 charge_a=0 charge_b=0 selection_a=1-6 selection_b=7-12 scaling=1.05 benchmark_Eint=-1.714 benchmark_unit=kcal/mol group=HBCNO
  C   -4.105136181   0.758452153  -1.918280683
  C   -3.125591009   0.482504115  -1.275688468
  C   -2.016011705   0.170524984  -0.548091003
  C   -1.035413242  -0.104482331   0.093509161
  H   -4.968501606   1.001452614  -2.484407706
  H   -0.169740273  -0.346002578   0.660377147
  C    1.977565514  -1.101870768   2.526572936
  C    2.448870019  -0.620002050   1.529198823
  C    2.963554358  -0.071668211   0.392912238
  C    3.403096518   0.414499584  -0.615802724
  H    1.569740248  -1.527506549   3.408884886
  H    3.789434051   0.843615799  -1.505951466
