31
charge=0 charge_a=0 charge_b=0 selection_a=1-11 selection_b=12-31 scaling=1.50 benchmark_Eint=-0.934 benchmark_unit=kcal/mol group=HBCNO
  C    2.570496267   0.822713317  -1.343610305
  C    1.790076838  -0.394117480  -1.744679366
  C    0.560784667  -0.019668147  -2.134539645
  C    0.439044991   1.434950910  -2.020577186
  C    1.595172025   1.942029980  -1.561798038
  H    3.475939534   0.945677599  -1.946915222
  H    2.904970999   0.768998428  -0.302887749
  H    2.179448725  -1.398691092  -1.711286142
  H   -0.226178747  -0.674360834  -2.475844083
  H   -0.450033663   1.995079365  -2.265268427
  H    1.815509609   2.979936178  -1.371701930
  C   -2.981109808   0.222982136   1.516678637
  C   -2.748426578  -0.878144224   2.554814559
  C   -3.824159644  -1.956442907   2.397048519
  C   -1.320275560  -1.459404964   2.476299544
  C   -0.249608106  -0.382842510   2.669307101
  C   -1.096827265  -2.587219181   3.487446873
  H   -3.999938027   0.604927807   1.585076227
  H   -2.840318103  -0.168017793   0.507452396
  H   -2.303145781   1.063773661   1.641320263
  H   -2.860908770  -0.433453862   3.550527193
  H   -3.700558016  -2.487294726   1.450249566
  H   -4.818389359  -1.509328954   2.396024639
  H   -3.796355583  -2.691763221   3.198141734
  H   -1.195235931  -1.874782850   1.470931593
  H   -0.374322492   0.115703730   3.633461070
  H   -0.279330363   0.373319489   1.889654429
  H    0.744585296  -0.829604007   2.655849744
  H   -1.283801450  -2.236704336   4.505194532
  H   -0.065985771  -2.939481572   3.445554459
  H   -1.742755254  -3.443426667   3.305395955
