24
charge=0 charge_a=0 charge_b=0 selection_a=1-6 selection_b=7-24 scaling=1.05 benchmark_Eint=-3.524 benchmark_unit=kcal/mol group=HBCNO
  C    1.863376164   0.830961683  -0.365347167
  C    2.239631084   0.788631466   0.776428516
  C    2.653805464   0.735308440   2.073302405
  C    3.019303462   0.688172978   3.219166374
  H    1.496574176   0.852223928  -1.361143973
  H    3.341740867   0.646816990   4.228568022
  C   -1.319209538  -0.145146411   2.187988862
  C   -0.796854613  -1.435291790   1.956990744
  C   -0.617922859  -1.889835856   0.678702215
  C   -0.940210630  -1.074243065  -0.430686369
  C   -0.722892421  -1.494380304  -1.763447174
  C   -1.002922808  -0.664093995  -2.817070313
  C   -1.525527208   0.626444470  -2.585982556
  C   -1.756729926   1.058651453  -1.306286067
  C   -1.468385350   0.230002800  -0.197150410
  C   -1.652137149   0.664297686   1.136042511
  H   -1.448494214   0.203734077   3.202470431
  H   -0.531625286  -2.061180554   2.796949353
  H   -0.210050334  -2.875293626   0.499123515
  H   -0.319050493  -2.482581043  -1.937690614
  H   -0.826450006  -0.995357424  -3.830621776
  H   -1.744576656   1.272125445  -3.424595768
  H   -2.153801072   2.048562060  -1.126290135
  H   -2.044987823   1.656725364   1.310622662
