25
charge=0 charge_a=0 charge_b=0 selection_a=1-17 selection_b=18-25 scaling=1.50 benchmark_Eint=-0.532 benchmark_unit=kcal/mol group=HBCNO
  C    0.468857906   1.853759805  -0.558066938
  C   -0.759634097   1.030703040  -0.152578806
  C   -0.561438673   0.480439962   1.264942952
  C   -2.005586484   1.923556939  -0.182847050
  C   -0.941331357  -0.132434398  -1.135257482
  H    0.622905680   2.689744360   0.125554145
  H    0.352531991   2.260316346  -1.563607736
  H    1.371312084   1.241499573  -0.547592158
  H   -0.438527688   1.291299024   1.984195734
  H    0.322949943  -0.153860579   1.320892573
  H   -1.420143964  -0.115907359   1.576288482
  H   -1.903289839   2.761519612   0.508042893
  H   -2.896247526   1.361645275   0.101744652
  H   -2.171110919   2.330640539  -1.181271741
  H   -0.063415863  -0.777981056  -1.145456065
  H   -1.097658163   0.235546680  -2.150201510
  H   -1.804118762  -0.742388000  -0.864013345
  C    3.186450831  -3.092020636   0.032274791
  C    2.199277774  -3.923124087   0.846697204
  H    3.080567648  -2.028246723   0.244470922
  H    3.032469318  -3.228815330  -1.038206217
  H    4.216867019  -3.369292214   0.254617702
  H    1.168999441  -3.651788698   0.618797116
  H    2.347141594  -3.777784407   1.916882744
  H    2.313330762  -4.987234481   0.640005999
