26
charge=0 charge_a=0 charge_b=0 selection_a=1-15 selection_b=16-26 scaling=1.00 benchmark_Eint=-2.573 benchmark_unit=kcal/mol group=HBCNO
  C    0.663008868  -0.282524307  -1.632434922
  C   -0.803217243  -0.291771442  -2.083141330
  C    0.902914824   1.141163458  -1.076901648
  C   -1.496124342   0.588760767  -1.039620326
  C   -0.504753344   1.743806575  -0.819958896
  H    0.801114732  -1.019511681  -0.840671044
  H    1.354461337  -0.541661530  -2.432711344
  H   -0.895122925   0.164816969  -3.071631332
  H   -1.222480499  -1.295323707  -2.146488771
  H    1.500394956   1.111169005  -0.167709423
  H    1.453713699   1.749733203  -1.792670490
  H   -2.481642800   0.932501884  -1.351175482
  H   -1.625787334   0.022539062  -0.115858722
  H   -0.593946285   2.181954184   0.172928030
  H   -0.705645371   2.541376965  -1.535659105
  C    1.787823181  -0.815078876   2.246912932
  C    0.288849061  -0.563080296   2.383306670
  C   -0.550741984  -1.786836811   2.026823262
  H    2.368544460   0.069804688   2.507203909
  H    2.046849279  -1.093283049   1.224465241
  H    2.109138580  -1.628292689   2.899560550
  H    0.001715378   0.273566653   1.744500933
  H    0.063664097  -0.253835382   3.406339806
  H   -0.367666388  -2.101918391   0.998678072
  H   -1.617211757  -1.584679398   2.126108146
  H   -0.309469824  -2.629685967   2.676331986
