12
charge=0 charge_a=0 charge_b=0 selection_a=1-6 selection_b=7-12 scaling=1.00 benchmark_Eint=-1.754 benchmark_unit=kcal/mol group=HBCNO
  C   -4.105136181   0.758452153  -1.918280683
  C   -3.125591009   0.482504115  -1.275688468
  C   -2.016011705   0.170524984  -0.548091003
  C   -1.035413242  -0.104482331   0.093509161
  H   -4.968501606   1.001452614  -2.484407706
  H   -0.169740273  -0.346002578   0.660377147
  C    1.854031428  -1.086125660   2.482719716
  C    2.325335933  -0.604256942   1.485345603
  C    2.840020272  -0.055923103   0.349059018
  C    3.279562432   0.430244692  -0.659655944
  H    1.446206162  -1.511761441   3.365031666
  H    3.665899965   0.859360907  -1.549804686
