12
charge=0 charge_a=0 charge_b=0 selection_a=1-6 selection_b=7-12 scaling=2.00 benchmark_Eint=-0.223 benchmark_unit=kcal/mol group=HBCNO
  C   -4.105136181   0.758452153  -1.918280683
  C   -3.125591009   0.482504115  -1.275688468
  C   -2.016011705   0.170524984  -0.548091003
  C   -1.035413242  -0.104482331   0.093509161
  H   -4.968501606   1.001452614  -2.484407706
  H   -0.169740273  -0.346002578   0.660377147
  C    4.324713158  -1.401027830   3.359784113
  C    4.796017663  -0.919159112   2.362410000
  C    5.310702002  -0.370825273   1.226123415
  C    5.750244162   0.115342522   0.217408453
  H    3.916887892  -1.826663611   4.242096063
  H    6.136581695   0.544458737  -0.672740289
