19
charge=0 charge_a=0 charge_b=0 selection_a=1-4 selection_b=5-19 scaling=2.00 benchmark_Eint=-0.105 benchmark_unit=kcal/mol group=HBCNO
  C   -2.306908112  -1.292211914  -0.702114044
  C   -1.938889143  -0.841941030  -1.746303009
  H   -2.629948324  -1.689888379   0.227087651
  H   -1.612037121  -0.442447998  -2.673447094
  C    2.615621624   2.828163558   1.544012186
  C    2.285721987   1.881392794   2.715169752
  C    3.985559219   2.355240467   1.046854540
  C    3.107849080   0.587645975   2.461504945
  C    3.883617648   0.830092997   1.151533711
  H    1.878598222   2.701323561   0.749663471
  H    2.603355177   3.877626536   1.835441668
  H    2.577746089   2.334594479   3.662293443
  H    1.217274025   1.682408390   2.775778711
  H    4.219552380   2.701480529   0.040412284
  H    4.771725434   2.723740660   1.710746906
  H    3.800277702   0.412999684   3.284773109
  H    2.473005013  -0.293669492   2.389673406
  H    3.308681777   0.446875468   0.307207936
  H    4.852711501   0.332946022   1.138545702
