28
charge=0 charge_a=0 charge_b=0 selection_a=1-10 selection_b=11-28 scaling=0.90 benchmark_Eint=-3.013 benchmark_unit=kcal/mol group=HBCNO
  C   -0.940929117  -1.008787201  -1.381448725
  C   -0.578188504   0.272642866  -1.348417936
  C    0.646515853   0.783103460  -1.934562221
  C    1.017319337   2.063398209  -1.900381369
  H   -1.852793580  -1.350966200  -0.916383901
  H   -0.324265137  -1.756628120  -1.862650924
  H   -1.211470239   0.995050712  -0.846631619
  H    1.285874417   0.054784025  -2.422485762
  H    0.403425587   2.810496321  -1.415637621
  H    1.939777844   2.399434314  -2.350865049
  C    1.370910319  -1.434166071   1.446734781
  C    0.133955354  -2.039510734   1.752900762
  C   -0.986997469  -1.272409156   1.925577350
  C   -0.928509400   0.134350809   1.795276546
  C   -2.073496935   0.953442452   1.931621779
  C   -1.987875555   2.311801993   1.775189084
  C   -0.747519115   2.917272929   1.482029596
  C    0.379840481   2.151413579   1.346997144
  C    0.323410231   0.746212579   1.492370889
  C    1.462249268  -0.074051823   1.322724609
  H    2.246966183  -2.051542883   1.307416213
  H    0.074969928  -3.114497349   1.848015538
  H   -1.937460802  -1.734885873   2.155840268
  H   -3.023171450   0.487165808   2.157398340
  H   -2.871159399   2.926174146   1.877496325
  H   -0.692300151   3.990088985   1.362579593
  H    1.329976241   2.610483019   1.111653344
  H    2.406499217   0.392892709   1.078701396
