29
charge=0 charge_a=0 charge_b=0 selection_a=1-17 selection_b=18-29 scaling=0.90 benchmark_Eint=-2.102 benchmark_unit=kcal/mol group=HBCNO
  C   -0.069710655   1.783976874  -0.715744905
  C    1.376993676   1.652232106  -1.205953365
  C    1.816696690   2.962234281  -1.869429829
  C    2.293474443   1.349595018  -0.014362629
  C    1.468471465   0.507833924  -2.222537875
  H   -0.162457875   2.592650852   0.010862063
  H   -0.408538461   0.865244315  -0.240420187
  H   -0.743649956   2.001663573  -1.545763166
  H    1.760718686   3.794508449  -1.166258616
  H    1.179841987   3.201399670  -2.722339170
  H    2.845100929   2.894886993  -2.227597675
  H    2.248693020   2.150479889   0.725175392
  H    3.331346659   1.247383003  -0.335153747
  H    1.997433854   0.423239660   0.477118839
  H    0.826468158   0.698973959  -3.083722823
  H    1.155512899  -0.434815732  -1.774382679
  H    2.490218587   0.388397332  -2.586285732
  C    0.337199016  -1.887431470   0.466679239
  C   -0.718598759  -1.977204150  -0.432632126
  C   -1.941349220  -1.390210519  -0.129547442
  C   -2.108112092  -0.713193739   1.072852204
  C   -1.051952354  -0.622779867   1.971857610
  C    0.170628991  -1.210090366   1.668757820
  H    1.289517012  -2.339988754   0.228967760
  H   -0.587433581  -2.499675359  -1.369628004
  H   -2.761273746  -1.456784362  -0.830574754
  H   -3.057778136  -0.253243377   1.306817295
  H   -1.180172807  -0.092504256   2.904867513
  H    0.993151277  -1.136327825   2.366002642
