34
charge=0 charge_a=0 charge_b=0 selection_a=1-14 selection_b=15-34 scaling=1.05 benchmark_Eint=-3.373 benchmark_unit=kcal/mol group=HBCNO
  C    0.077435441   2.889514837   0.706844925
  C    0.622276988   2.323167132  -0.600571634
  C    1.863750986   1.455788994  -0.407293799
  C    2.410390657   0.893309790  -1.715626599
  H   -0.820408405   3.485175454   0.543312407
  H    0.815705907   3.526924837   1.195536971
  H   -0.178577616   2.090227980   1.402466052
  H    0.859035058   3.141759719  -1.285519027
  H   -0.152184590   1.731056090  -1.094615895
  H    1.623078902   0.635066945   0.272043737
  H    2.638655347   2.043880489   0.091631359
  H    1.657154721   0.294491402  -2.228963457
  H    3.279517941   0.257762189  -1.547335183
  H    2.709266745   1.694882248  -2.392619264
  C    1.338490067  -3.108361282  -1.221722904
  C    0.714717019  -2.497827847   0.029905087
  C   -0.532136589  -1.668163702  -0.264839572
  C   -1.167805896  -1.060677799   0.981810457
  C   -2.404099006  -0.215180427   0.687447412
  C   -3.037715524   0.375899831   1.943300926
  H    2.221535298  -3.700187924  -0.981012222
  H    1.640840962  -2.333184878  -1.926424583
  H    0.630111303  -3.761483920  -1.733604910
  H    1.452360436  -1.869967665   0.536194169
  H    0.457982547  -3.291633781   0.736317293
  H   -1.268388765  -2.294542553  -0.777451022
  H   -0.275814106  -0.869622248  -0.965983025
  H   -0.427222300  -0.446663671   1.502405336
  H   -1.436361125  -1.861448737   1.677459550
  H   -3.139736566  -0.827741965   0.159618384
  H   -2.133012110   0.590642261   0.001484895
  H   -3.348008422  -0.410422843   2.633068861
  H   -3.916565096   0.974751474   1.704803893
  H   -2.333077170   1.018507661   2.472729680
