33
charge=0 charge_a=0 charge_b=0 selection_a=1-15 selection_b=16-33 scaling=2.00 benchmark_Eint=-0.329 benchmark_unit=kcal/mol group=HBCNO
  C   -2.318100000   0.034730000   1.181680000
  C   -2.675250000   1.189950000   0.241820000
  C   -2.539990000  -1.208090000   0.311510000
  C   -2.087660000   0.763400000  -1.115730000
  C   -2.084710000  -0.788630000  -1.105310000
  H   -1.268950000   0.105560000   1.474100000
  H   -2.911010000   0.025780000   2.095610000
  H   -3.761540000   1.277320000   0.170140000
  H   -2.294830000   2.152920000   0.580690000
  H   -2.007700000  -2.084260000   0.679450000
  H   -3.602150000  -1.458610000   0.303490000
  H   -2.652200000   1.170760000  -1.952760000
  H   -1.068990000   1.138240000  -1.212280000
  H   -1.085770000  -1.167690000  -1.316770000
  H   -2.741860000  -1.200110000  -1.869570000
  C    3.966234604   1.276713525   0.845471609
  C    4.221374604   0.004923525   1.657171609
  C    3.916124604  -1.254326475   0.843151609
  C    4.684274604  -1.267066475  -0.480208391
  C    4.422414604   0.003163525  -1.292038391
  C    4.733574604   1.261183525  -0.478378391
  H    4.238234604   2.157543525   1.429531609
  H    2.896544604   1.360943525   0.637081609
  H    3.626444604   0.015773525   2.572251609
  H    5.270284604  -0.015936475   1.968361609
  H    2.844404604  -1.295286475   0.634131609
  H    4.152514604  -2.146216475   1.425941609
  H    4.416524604  -2.149976475  -1.063228391
  H    5.755884604  -1.343856475  -0.271988391
  H    3.372454604   0.023703525  -1.596758391
  H    5.011514604  -0.007576475  -2.210618391
  H    4.500284604   2.154653525  -1.060098391
  H    5.807444604   1.295853525  -0.270468391
