28
charge=0 charge_a=0 charge_b=0 selection_a=1-11 selection_b=12-28 scaling=1.05 benchmark_Eint=-2.420 benchmark_unit=kcal/mol group=HBCNO
  C    1.169440910   2.527271818   0.175793725
  C   -0.049553587   2.421169867   1.044168005
  C   -1.107791623   2.105405927   0.279659653
  C   -0.677953275   1.982136888  -1.114518233
  C    0.640519416   2.223794804  -1.194950135
  H    1.948538807   1.819844459   0.477566226
  H    1.625667912   3.521142816   0.229260199
  H   -0.046285268   2.578304005   2.110622767
  H   -2.120719861   1.959772217   0.622258935
  H   -1.331524648   1.730777158  -1.935436459
  H    1.247849387   2.206141921  -2.085385644
  C   -1.215129178  -1.798793266  -0.424604510
  C    0.047046823  -2.422170591   0.182797136
  C   -0.299217404  -3.064385051   1.531166893
  C    0.597548851  -3.491812051  -0.767377897
  C    1.103638524  -1.331405326   0.393621316
  H   -1.984186743  -2.555341160  -0.587415653
  H   -0.994902495  -1.327378833  -1.382648844
  H   -1.625790653  -1.032964877   0.233364705
  H   -1.052804785  -3.844210005   1.411965948
  H   -0.692091864  -2.321829997   2.226987708
  H    0.582487496  -3.517314996   1.986876458
  H   -0.135415623  -4.282380071  -0.934755934
  H    1.498866002  -3.951426774  -0.359184089
  H    0.851339081  -3.059579160  -1.736290465
  H    0.731425967  -0.555614758   1.062410826
  H    1.365264448  -0.855138258  -0.551274059
  H    2.013405962  -1.749057035   0.827744005
