19
charge=0 charge_a=0 charge_b=0 selection_a=1-4 selection_b=5-19 scaling=1.25 benchmark_Eint=-0.999 benchmark_unit=kcal/mol group=HBCNO
  C   -2.306908112  -1.292211914  -0.702114044
  C   -1.938889143  -0.841941030  -1.746303009
  H   -2.629948324  -1.689888379   0.227087651
  H   -1.612037121  -0.442447998  -2.673447094
  C    0.880349699   1.923171781   0.558479875
  C    0.550450062   0.976401017   1.729637441
  C    2.250287294   1.450248690   0.061322229
  C    1.372577155  -0.317345802   1.475972634
  C    2.148345723  -0.074898780   0.166001400
  H    0.143326297   1.796331784  -0.235868840
  H    0.868083252   2.972634759   0.849909357
  H    0.842474164   1.429602702   2.676761132
  H   -0.517997900   0.777416613   1.790246400
  H    2.484280455   1.796488752  -0.945120027
  H    3.036453509   1.818748883   0.725214595
  H    2.065005777  -0.491992093   2.299240798
  H    0.737733088  -1.198661269   1.404141095
  H    1.573409852  -0.458116309  -0.678324375
  H    3.117439576  -0.572045755   0.153013391
