24
charge=0 charge_a=0 charge_b=0 selection_a=1-7 selection_b=8-24 scaling=1.50 benchmark_Eint=-0.841 benchmark_unit=kcal/mol group=HBCNO
  C   -1.047599123   2.342787152  -0.147910046
  C   -1.633436015   1.417981611  -0.634197879
  C   -2.338928708   0.292824198  -1.223843411
  H   -0.525171798   3.158619903   0.283134539
  H   -3.312397755   0.599721360  -1.606246474
  H   -2.497226181  -0.495764837  -0.488649509
  H   -1.770050180  -0.131545921  -2.051117142
  C    0.659873317  -3.657128081   0.099709880
  C    1.075946596  -2.598887026   1.117379236
  C    2.088371460  -1.599794165   0.564854397
  C    2.519406763  -0.547694791   1.582146983
  C    3.484578449   0.480448981   1.000060387
  H   -0.071678980  -4.350182798   0.515471437
  H    1.519824673  -4.241273996  -0.231033473
  H    0.217731112  -3.198800997  -0.786135737
  H    1.496214305  -3.087908451   2.000163702
  H    0.194809188  -2.054300117   1.466581184
  H    1.659862194  -1.095763738  -0.305525614
  H    2.969437742  -2.139121245   0.203049820
  H    2.980968985  -1.042995173   2.440705816
  H    1.630328376  -0.038632363   1.959850246
  H    4.393466641   0.003003394   0.630234748
  H    3.779014676   1.221050823   1.744003450
  H    3.026307864   1.009730854   0.163650656
