32
charge=0 charge_a=0 charge_b=0 selection_a=1-17 selection_b=18-32 scaling=1.25 benchmark_Eint=-1.745 benchmark_unit=kcal/mol group=HBCNO
  C   -1.307169998  -1.527518703  -0.776894199
  C   -0.907494672  -0.714515092  -2.013935521
  C    0.620519084  -0.609769377  -2.088197515
  C   -1.432033878  -1.412398316  -3.274185411
  C   -1.513027711   0.691021885  -1.919072020
  H   -0.883399305  -2.531948490  -0.815038314
  H   -2.391479496  -1.623754182  -0.706929635
  H   -0.954654223  -1.050547302   0.136715499
  H    1.077411964  -1.598097893  -2.154325495
  H    1.023881958  -0.113813688  -1.205515119
  H    0.930566660  -0.037995713  -2.963872864
  H   -1.017149234  -2.417074246  -3.366261566
  H   -1.161515078  -0.854662566  -4.171792281
  H   -2.519072834  -1.499904299  -3.248927257
  H   -1.157889642   1.212540405  -1.029941301
  H   -2.601610069   0.644622931  -1.866986729
  H   -1.244607171   1.291927494  -2.788965537
  C    2.364112553   1.123222179   2.345016978
  C    1.752994925  -0.263595113   2.563398133
  C    1.164978607   1.984578078   1.918890249
  C    0.420299789   0.040545198   3.261670134
  C   -0.058283037   1.385730401   2.659768034
  H    2.777022405   1.493157191   3.286308941
  H    3.170025145   1.128648945   1.611996114
  H    1.572051302  -0.742120660   1.599036258
  H    2.391970922  -0.929736653   3.141868285
  H    1.310292318   3.040507265   2.140749825
  H    1.024115617   1.905936910   0.840700238
  H   -0.311199892  -0.756423645   3.136296706
  H    0.589305247   0.151062595   4.333610553
  H   -0.417586637   2.054564926   3.440106406
  H   -0.889536285   1.235610091   1.972544177
