31
charge=0 charge_a=0 charge_b=0 selection_a=1-11 selection_b=12-31 scaling=1.10 benchmark_Eint=-2.710 benchmark_unit=kcal/mol group=HBCNO
  C    2.570496267   0.822713317  -1.343610305
  C    1.790076838  -0.394117480  -1.744679366
  C    0.560784667  -0.019668147  -2.134539645
  C    0.439044991   1.434950910  -2.020577186
  C    1.595172025   1.942029980  -1.561798038
  H    3.475939534   0.945677599  -1.946915222
  H    2.904970999   0.768998428  -0.302887749
  H    2.179448725  -1.398691092  -1.711286142
  H   -0.226178747  -0.674360834  -2.475844083
  H   -0.450033663   1.995079365  -2.265268427
  H    1.815509609   2.979936178  -1.371701930
  C   -2.348274680   0.577547347   0.733010348
  C   -2.115591450  -0.523579013   1.771146270
  C   -3.191324516  -1.601877696   1.613380230
  C   -0.687440432  -1.104839753   1.692631255
  C    0.383227022  -0.028277299   1.885638812
  C   -0.463992137  -2.232653970   2.703778584
  H   -3.367102899   0.959493018   0.801407938
  H   -2.207482975   0.186547418  -0.276215893
  H   -1.670310653   1.418338872   0.857651974
  H   -2.228073642  -0.078888651   2.766858904
  H   -3.067722888  -2.132729515   0.666581277
  H   -4.185554231  -1.154763743   1.612356350
  H   -3.163520455  -2.337198010   2.414473445
  H   -0.562400803  -1.520217639   0.687263304
  H    0.258512636   0.470268941   2.849792781
  H    0.353504765   0.727884700   1.105986140
  H    1.377420424  -0.475038796   1.872181455
  H   -0.650966322  -1.882139125   3.721526243
  H    0.566849357  -2.584916361   2.661886170
  H   -1.109920126  -3.088861456   2.521727666
