24
charge=0 charge_a=0 charge_b=0 selection_a=1-7 selection_b=8-24 scaling=1.00 benchmark_Eint=-2.553 benchmark_unit=kcal/mol group=HBCNO
  C   -1.047599123   2.342787152  -0.147910046
  C   -1.633436015   1.417981611  -0.634197879
  C   -2.338928708   0.292824198  -1.223843411
  H   -0.525171798   3.158619903   0.283134539
  H   -3.312397755   0.599721360  -1.606246474
  H   -2.497226181  -0.495764837  -0.488649509
  H   -1.770050180  -0.131545921  -2.051117142
  C   -0.271418838  -2.928126165  -0.295857854
  C    0.144654441  -1.869885110   0.721811502
  C    1.157079305  -0.870792249   0.169286663
  C    1.588114608   0.181307125   1.186579249
  C    2.553286294   1.209450897   0.604492653
  H   -1.002971135  -3.621180882   0.119903703
  H    0.588532518  -3.512272080  -0.626601207
  H   -0.713561043  -2.469799081  -1.181703471
  H    0.564922150  -2.358906535   1.604595968
  H   -0.736482967  -1.325298201   1.071013450
  H    0.728570039  -0.366761822  -0.701093348
  H    2.038145587  -1.410119329  -0.192517914
  H    2.049676830  -0.313993257   2.045138082
  H    0.699036221   0.690369553   1.564282512
  H    3.462174486   0.732005310   0.234667014
  H    2.847722521   1.950052739   1.348435716
  H    2.095015709   1.738732770  -0.231917078
