16
charge=0 charge_a=0 charge_b=0 selection_a=1-6 selection_b=7-16 scaling=1.05 benchmark_Eint=-1.868 benchmark_unit=kcal/mol group=HBCNO
  C   -1.146558564   0.352125001  -1.661218137
  C   -0.027818073   0.006806529  -1.937066956
  C    1.243350870  -0.389617924  -2.225263256
  C    2.367910334  -0.742938393  -2.468310348
  H   -2.127872675   0.654677993  -1.395709042
  H    3.358672379  -1.052751185  -2.686530281
  C    1.146279184   0.197918918   1.748182432
  C   -0.089094893   0.191730617   2.249002303
  C   -1.149277857  -0.683726022   1.784693993
  C   -2.391907780  -0.679818428   2.269405868
  H    1.905058077   0.869499139   2.122173187
  H    1.431384144  -0.463989329   0.941703877
  H   -0.345020292   0.876022391   3.051186317
  H   -0.888924414  -1.371739274   0.988781306
  H   -2.685575756  -0.003369286   3.061731235
  H   -3.149110419  -1.352417509   1.893819527
