24
charge=0 charge_a=0 charge_b=0 selection_a=1-6 selection_b=7-24 scaling=0.95 benchmark_Eint=-1.594 benchmark_unit=kcal/mol group=HBCNO
  C   -2.542729754  -0.857384312  -2.231865015
  C   -1.797853130  -0.087212297  -3.009426583
  H   -2.109484391  -1.457742862  -1.443955595
  H   -3.616132815  -0.917225031  -2.351406086
  H   -0.725067842  -0.026466968  -2.889263379
  H   -2.231506285   0.514412550  -3.796885439
  C    1.060402706   0.553373447  -0.578591376
  C    1.599115665   1.263421435   0.665345189
  C    0.609682917   1.176264681   1.829542564
  C    0.230396103  -0.274802775   2.133580140
  C   -0.307185152  -0.983017269   0.888149299
  C    0.685260116  -0.898203990  -0.273278193
  H    1.795130992   0.593289053  -1.384848864
  H    0.172797497   1.083051343  -0.936082205
  H    1.823735565   2.306710549   0.437435808
  H    2.544010512   0.798321651   0.962733319
  H   -0.294913293   1.735611948   1.572290302
  H    1.028211971   1.651933981   2.718060268
  H   -0.506591954  -0.312434290   2.937501322
  H    1.114799039  -0.808094222   2.495530090
  H   -1.247854231  -0.512130274   0.588356156
  H   -0.536776773  -2.025679306   1.115113400
  H    0.272272679  -1.378771932  -1.161609113
  H    1.590289961  -1.455481751  -0.012904647
