33
charge=0 charge_a=0 charge_b=0 selection_a=1-18 selection_b=19-33 scaling=0.80 benchmark_Eint=0.113 benchmark_unit=kcal/mol group=HBCNO
  C   -0.170342986   1.615447761   3.142097798
  C    0.151003721   0.415151310   2.249389827
  C   -1.008936030   0.089621974   1.307539108
  C   -1.408260479   1.310928263   0.478338935
  C   -1.734091542   2.512238624   1.367719806
  C   -0.573535037   2.836102177   2.311474168
  H    0.684328675   1.856565820   3.776792319
  H   -0.993470168   1.353015546   3.813959213
  H    0.398770040  -0.456288425   2.857922607
  H    1.039233201   0.637909232   1.651651980
  H   -1.869838782  -0.237927138   1.899114825
  H   -0.741753543  -0.738721299   0.653929088
  H   -2.258650594   1.070666658  -0.162613978
  H   -0.580269904   1.571546120  -0.186630032
  H   -2.625931564   2.288323426   1.961168858
  H   -1.977818656   3.383022235   0.756243141
  H   -0.838185874   3.668939134   2.965378088
  H    0.286401064   3.165126910   1.719668570
  C    0.095595021  -0.355080866  -1.813263494
  C   -0.550298875   0.631174532  -2.746811075
  C   -0.460679716  -1.617895382  -1.612170067
  C    0.111232708  -2.517762557  -0.722367798
  C    1.255649353  -2.169052294  -0.015498502
  C    1.822604842  -0.916419153  -0.210437943
  C    1.246652767  -0.020740953  -1.102034770
  H   -1.328405628   1.197754271  -2.231794963
  H   -1.016986891   0.129734721  -3.593436289
  H    0.174445423   1.346696112  -3.131676459
  H   -1.352117174  -1.897902922  -2.157909331
  H   -0.336962079  -3.491239632  -0.580714035
  H    1.701318462  -2.866922650   0.678727128
  H    2.713208585  -0.634892822   0.333538360
  H    1.694793018   0.953416849  -1.246446148
