35
charge=0 charge_a=0 charge_b=0 selection_a=1-20 selection_b=21-35 scaling=1.10 benchmark_Eint=-2.699 benchmark_unit=kcal/mol group=HBCNO
  C    1.098210580  -0.560578316  -1.715736372
  C    0.517852420   0.835464171  -1.957894645
  C   -0.414141856   1.206997242  -0.801678816
  C    1.619498770   1.893301645  -2.183201890
  C    2.548857928   1.526258838  -3.343435783
  C    1.040119458   3.290830088  -2.419142402
  H    0.302047251  -1.273540655  -1.507962759
  H    1.765171559  -0.555511514  -0.850609110
  H    1.661863943  -0.930101921  -2.569700397
  H   -0.081098070   0.795209918  -2.875298873
  H    0.153186871   1.354237416   0.119189875
  H   -1.133855514   0.412919672  -0.611779426
  H   -0.972715090   2.119673586  -0.997971304
  H    2.221258197   1.928561286  -1.267344024
  H    1.980266988   1.406443138  -4.268481621
  H    3.092357202   0.601307089  -3.163705314
  H    3.285217023   2.312741380  -3.509522101
  H    0.370639399   3.288875362  -3.282371589
  H    1.836079964   4.007633622  -2.621694669
  H    0.478695194   3.656740439  -1.562465269
  C   -0.354960325  -1.269076337   2.220774319
  C    1.094644392  -1.141361448   2.598548611
  C   -1.297436442  -0.354665485   2.688859959
  C   -2.627433982  -0.435974762   2.299242113
  C   -3.040829947  -1.440973053   1.433157829
  C   -2.113735879  -2.364574459   0.967425801
  C   -0.784296780  -2.277573175   1.360617256
  H    1.210360265  -0.761102361   3.612506778
  H    1.607292608  -0.446902784   1.929207435
  H    1.609547793  -2.098170294   2.531466171
  H   -0.983888563   0.433517003   3.360747850
  H   -3.341239084   0.285665750   2.671106029
  H   -4.075501955  -1.505977699   1.128185874
  H   -2.425066922  -3.153883337   0.297481426
  H   -0.067938676  -2.998327522   0.989792791
