24
charge=0 charge_a=0 charge_b=0 selection_a=1-6 selection_b=7-24 scaling=0.85 benchmark_Eint=-0.796 benchmark_unit=kcal/mol group=HBCNO
  C   -2.542729754  -0.857384312  -2.231865015
  C   -1.797853130  -0.087212297  -3.009426583
  H   -2.109484391  -1.457742862  -1.443955595
  H   -3.616132815  -0.917225031  -2.351406086
  H   -0.725067842  -0.026466968  -2.889263379
  H   -2.231506285   0.514412550  -3.796885439
  C    0.902935947   0.519172405  -0.768567033
  C    1.441648906   1.229220393   0.475369532
  C    0.452216158   1.142063639   1.639566907
  C    0.072929344  -0.309003817   1.943604483
  C   -0.464651911  -1.017218311   0.698173642
  C    0.527793357  -0.932405032  -0.463253850
  H    1.637664233   0.559088011  -1.574824521
  H    0.015330738   1.048850301  -1.126057862
  H    1.666268806   2.272509507   0.247460151
  H    2.386543753   0.764120609   0.772757662
  H   -0.452380052   1.701410906   1.382314645
  H    0.870745212   1.617732939   2.528084611
  H   -0.664058713  -0.346635332   2.747525665
  H    0.957332280  -0.842295264   2.305554433
  H   -1.405320990  -0.546331316   0.398380499
  H   -0.694243532  -2.059880348   0.925137743
  H    0.114805920  -1.412972974  -1.351584770
  H    1.432823202  -1.489682793  -0.202880304
