28
charge=0 charge_a=0 charge_b=0 selection_a=1-10 selection_b=11-28 scaling=1.50 benchmark_Eint=-1.081 benchmark_unit=kcal/mol group=HBCNO
  C   -0.940929117  -1.008787201  -1.381448725
  C   -0.578188504   0.272642866  -1.348417936
  C    0.646515853   0.783103460  -1.934562221
  C    1.017319337   2.063398209  -1.900381369
  H   -1.852793580  -1.350966200  -0.916383901
  H   -0.324265137  -1.756628120  -1.862650924
  H   -1.211470239   0.995050712  -0.846631619
  H    1.285874417   0.054784025  -2.422485762
  H    0.403425587   2.810496321  -1.415637621
  H    1.939777844   2.399434314  -2.350865049
  C    1.185428852  -1.481854125   3.217449597
  C   -0.051526113  -2.087198788   3.523615578
  C   -1.172478936  -1.320097210   3.696292166
  C   -1.113990867   0.086662755   3.565991362
  C   -2.258978402   0.905754398   3.702336595
  C   -2.173357022   2.264113939   3.545903900
  C   -0.933000582   2.869584875   3.252744412
  C    0.194359014   2.103725525   3.117711960
  C    0.137928764   0.698524525   3.263085705
  C    1.276767801  -0.121739877   3.093439425
  H    2.061484716  -2.099230937   3.078131029
  H   -0.110511539  -3.162185403   3.618730354
  H   -2.122942269  -1.782573927   3.926555084
  H   -3.208652917   0.439477754   3.928113156
  H   -3.056640866   2.878486092   3.648211141
  H   -0.877781618   3.942400931   3.133294409
  H    1.144494774   2.562794965   2.882368160
  H    2.221017750   0.345204655   2.849416212
