29
charge=0 charge_a=0 charge_b=0 selection_a=1-17 selection_b=18-29 scaling=0.80 benchmark_Eint=1.692 benchmark_unit=kcal/mol group=HBCNO
  C   -0.069710655   1.783976874  -0.715744905
  C    1.376993676   1.652232106  -1.205953365
  C    1.816696690   2.962234281  -1.869429829
  C    2.293474443   1.349595018  -0.014362629
  C    1.468471465   0.507833924  -2.222537875
  H   -0.162457875   2.592650852   0.010862063
  H   -0.408538461   0.865244315  -0.240420187
  H   -0.743649956   2.001663573  -1.545763166
  H    1.760718686   3.794508449  -1.166258616
  H    1.179841987   3.201399670  -2.722339170
  H    2.845100929   2.894886993  -2.227597675
  H    2.248693020   2.150479889   0.725175392
  H    3.331346659   1.247383003  -0.335153747
  H    1.997433854   0.423239660   0.477118839
  H    0.826468158   0.698973959  -3.083722823
  H    1.155512899  -0.434815732  -1.774382679
  H    2.490218587   0.388397332  -2.586285732
  C    0.494484195  -1.682258574   0.329362768
  C   -0.561313580  -1.772031254  -0.569948597
  C   -1.784064041  -1.185037623  -0.266863913
  C   -1.950826913  -0.508020843   0.935535733
  C   -0.894667175  -0.417606971   1.834541139
  C    0.327914170  -1.004917470   1.531441349
  H    1.446802191  -2.134815858   0.091651289
  H   -0.430148402  -2.294502463  -1.506944475
  H   -2.603988567  -1.251611466  -0.967891225
  H   -2.900492957  -0.048070481   1.169500824
  H   -1.022887628   0.112668640   2.767551042
  H    1.150436456  -0.931154929   2.228686171
