27
charge=0 charge_a=0 charge_b=0 selection_a=1-15 selection_b=16-27 scaling=2.00 benchmark_Eint=-0.330 benchmark_unit=kcal/mol group=HBCNO
  C    0.104374038   0.128391170  -1.885350666
  C   -1.243248288  -0.523050983  -1.759897681
  C    1.270427328  -0.634693284  -1.881459046
  C    2.521031026  -0.031680930  -1.913242248
  C    2.627336676   1.353302776  -1.954785521
  C    1.471985450   2.125416202  -1.975094266
  C    0.224808681   1.515596202  -1.943157100
  H   -1.517952555  -0.617852936  -0.707759545
  H   -1.244876325  -1.522351587  -2.192501599
  H   -2.017466393   0.064398856  -2.251139604
  H    1.196540099  -1.713248396  -1.839024386
  H    3.412901228  -0.642845552  -1.905836000
  H    3.599237883   1.825264713  -1.979438531
  H    1.542393622   3.203555188  -2.016076572
  H   -0.669617747   2.124288796  -1.948942873
  C   -1.753509720   0.761162745   4.376061103
  C   -0.645511858  -0.051511294   4.172985344
  C   -0.723187938  -1.410251092   4.450662872
  C   -1.907786397  -1.957151909   4.930668224
  C   -3.016981613  -1.143767708   5.133305648
  C   -2.939115808   0.216394771   4.855862254
  H   -1.695384246   1.815958963   4.148405872
  H    0.266453014   0.367611050   3.774084332
  H    0.135923461  -2.043576415   4.281300713
  H   -1.967885838  -3.015369532   5.143355386
  H   -3.939326834  -1.568683454   5.503691490
  H   -3.801726124   0.849429220   5.010272639
