27
charge=0 charge_a=0 charge_b=0 selection_a=1-7 selection_b=8-27 scaling=2.00 benchmark_Eint=-0.222 benchmark_unit=kcal/mol group=HBCNO
  C   -2.670778362  -1.780890397  -0.163540230
  C   -2.317204365  -1.135443190  -1.108947600
  C   -1.879708948  -0.347125034  -2.248326459
  H   -2.984622335  -2.352759033   0.672513260
  H   -0.946957695  -0.736602139  -2.655411645
  H   -1.709228740   0.689540219  -1.958180807
  H   -2.627568141  -0.359085187  -3.041088284
  C    3.429104362   0.455275485   1.097281935
  C    3.109815507   1.300579833   2.349253450
  C    1.959329230   2.276906040   2.071580815
  C    2.681524971   0.340816782   3.466749938
  C    4.347048994   2.082509290   2.806614061
  C    3.877801822   1.222096008  -0.144794842
  H    2.543210222  -0.134941753   0.855840810
  H    4.207236623  -0.263847443   1.366942055
  H    2.220614043   2.999159982   1.298667969
  H    1.063903895   1.741917035   1.755827576
  H    1.711323008   2.839090263   2.972810119
  H    3.478253180  -0.366635874   3.701516709
  H    1.801062692  -0.229371128   3.169380234
  H    2.438419411   0.886961035   4.379186396
  H    5.189135987   1.412359587   2.987112800
  H    4.656179161   2.818929836   2.065621505
  H    4.141130964   2.617294646   3.734652163
  H    3.122623249   1.932129486  -0.479855307
  H    4.798631991   1.777283221   0.029953383
  H    4.066173795   0.533902377  -0.969131033
