31
charge=0 charge_a=0 charge_b=0 selection_a=1-11 selection_b=12-31 scaling=0.85 benchmark_Eint=-1.381 benchmark_unit=kcal/mol group=HBCNO
  C    2.570496267   0.822713317  -1.343610305
  C    1.790076838  -0.394117480  -1.744679366
  C    0.560784667  -0.019668147  -2.134539645
  C    0.439044991   1.434950910  -2.020577186
  C    1.595172025   1.942029980  -1.561798038
  H    3.475939534   0.945677599  -1.946915222
  H    2.904970999   0.768998428  -0.302887749
  H    2.179448725  -1.398691092  -1.711286142
  H   -0.226178747  -0.674360834  -2.475844083
  H   -0.450033663   1.995079365  -2.265268427
  H    1.815509609   2.979936178  -1.371701930
  C   -1.952752725   0.799150604   0.243217668
  C   -1.720069495  -0.301975756   1.281353590
  C   -2.795802561  -1.380274439   1.123587550
  C   -0.291918477  -0.883236496   1.202838575
  C    0.778748977   0.193325958   1.395846132
  C   -0.068470182  -2.011050713   2.213985904
  H   -2.971580944   1.181096275   0.311615258
  H   -1.811961020   0.408150675  -0.766008573
  H   -1.274788698   1.639942129   0.367859294
  H   -1.832551687   0.142714606   2.277066224
  H   -2.672200933  -1.911126258   0.176788597
  H   -3.790032276  -0.933160486   1.122563670
  H   -2.767998500  -2.115594753   1.924680765
  H   -0.166878848  -1.298614382   0.197470624
  H    0.654034591   0.691872198   2.360000101
  H    0.749026720   0.949487957   0.616193460
  H    1.772942379  -0.253435539   1.382388775
  H   -0.255444367  -1.660535868   3.231733563
  H    0.962371312  -2.363313104   2.172093490
  H   -0.714398171  -2.867258199   2.031934986
