27
charge=0 charge_a=0 charge_b=0 selection_a=1-15 selection_b=16-27 scaling=1.10 benchmark_Eint=-3.805 benchmark_unit=kcal/mol group=HBCNO
  C    0.104374038   0.128391170  -1.885350666
  C   -1.243248288  -0.523050983  -1.759897681
  C    1.270427328  -0.634693284  -1.881459046
  C    2.521031026  -0.031680930  -1.913242248
  C    2.627336676   1.353302776  -1.954785521
  C    1.471985450   2.125416202  -1.975094266
  C    0.224808681   1.515596202  -1.943157100
  H   -1.517952555  -0.617852936  -0.707759545
  H   -1.244876325  -1.522351587  -2.192501599
  H   -2.017466393   0.064398856  -2.251139604
  H    1.196540099  -1.713248396  -1.839024386
  H    3.412901228  -0.642845552  -1.905836000
  H    3.599237883   1.825264713  -1.979438531
  H    1.542393622   3.203555188  -2.016076572
  H   -0.669617747   2.124288796  -1.948942873
  C   -0.685499616   1.197962164   1.866574435
  C    0.422498246   0.385288125   1.663498676
  C    0.344822166  -0.973451673   1.941176204
  C   -0.839776293  -1.520352490   2.421181556
  C   -1.948971509  -0.706968289   2.623818980
  C   -1.871105704   0.653194190   2.346375586
  H   -0.627374142   2.252758382   1.638919204
  H    1.334463118   0.804410469   1.264597664
  H    1.203933565  -1.606776996   1.771814045
  H   -0.899875734  -2.578570113   2.633868718
  H   -2.871316730  -1.131884035   2.994204822
  H   -2.733716020   1.286228639   2.500785971
