28
charge=0 charge_a=0 charge_b=0 selection_a=1-11 selection_b=12-28 scaling=0.80 benchmark_Eint=0.643 benchmark_unit=kcal/mol group=HBCNO
  C    1.169440910   2.527271818   0.175793725
  C   -0.049553587   2.421169867   1.044168005
  C   -1.107791623   2.105405927   0.279659653
  C   -0.677953275   1.982136888  -1.114518233
  C    0.640519416   2.223794804  -1.194950135
  H    1.948538807   1.819844459   0.477566226
  H    1.625667912   3.521142816   0.229260199
  H   -0.046285268   2.578304005   2.110622767
  H   -2.120719861   1.959772217   0.622258935
  H   -1.331524648   1.730777158  -1.935436459
  H    1.247849387   2.206141921  -2.085385644
  C   -1.219475435  -1.146010839  -0.471926786
  C    0.042700566  -1.769388164   0.135474860
  C   -0.303563661  -2.411602624   1.483844617
  C    0.593202594  -2.839029624  -0.814700173
  C    1.099292267  -0.678622899   0.346299040
  H   -1.988533000  -1.902558733  -0.634737929
  H   -0.999248752  -0.674596406  -1.429971120
  H   -1.630136910  -0.380182450   0.186042429
  H   -1.057151042  -3.191427578   1.364643672
  H   -0.696438121  -1.669047570   2.179665432
  H    0.578141239  -2.864532569   1.939554182
  H   -0.139761880  -3.629597644  -0.982078210
  H    1.494519745  -3.298644347  -0.406506365
  H    0.846992824  -2.406796733  -1.783612741
  H    0.727079710   0.097167669   1.015088550
  H    1.360918191  -0.202355831  -0.598596335
  H    2.009059705  -1.096274608   0.780421729
