26
charge=0 charge_a=0 charge_b=0 selection_a=1-15 selection_b=16-26 scaling=0.95 benchmark_Eint=-2.521 benchmark_unit=kcal/mol group=HBCNO
  C    0.663008868  -0.282524307  -1.632434922
  C   -0.803217243  -0.291771442  -2.083141330
  C    0.902914824   1.141163458  -1.076901648
  C   -1.496124342   0.588760767  -1.039620326
  C   -0.504753344   1.743806575  -0.819958896
  H    0.801114732  -1.019511681  -0.840671044
  H    1.354461337  -0.541661530  -2.432711344
  H   -0.895122925   0.164816969  -3.071631332
  H   -1.222480499  -1.295323707  -2.146488771
  H    1.500394956   1.111169005  -0.167709423
  H    1.453713699   1.749733203  -1.792670490
  H   -2.481642800   0.932501884  -1.351175482
  H   -1.625787334   0.022539062  -0.115858722
  H   -0.593946285   2.181954184   0.172928030
  H   -0.705645371   2.541376965  -1.535659105
  C    1.764782755  -0.765179085   2.139514788
  C    0.265808635  -0.513180505   2.275908526
  C   -0.573782410  -1.736937020   1.919425118
  H    2.345504034   0.119704479   2.399805765
  H    2.023808853  -1.043383258   1.117067097
  H    2.086098154  -1.578392898   2.792162406
  H   -0.021325048   0.323466444   1.637102789
  H    0.040623671  -0.203935591   3.298941662
  H   -0.390706814  -2.052018600   0.891279928
  H   -1.640252183  -1.534779607   2.018710002
  H   -0.332510250  -2.579786176   2.568933842
