31
charge=0 charge_a=0 charge_b=0 selection_a=1-11 selection_b=12-31 scaling=1.00 benchmark_Eint=-3.020 benchmark_unit=kcal/mol group=HBCNO
  C    2.570496267   0.822713317  -1.343610305
  C    1.790076838  -0.394117480  -1.744679366
  C    0.560784667  -0.019668147  -2.134539645
  C    0.439044991   1.434950910  -2.020577186
  C    1.595172025   1.942029980  -1.561798038
  H    3.475939534   0.945677599  -1.946915222
  H    2.904970999   0.768998428  -0.302887749
  H    2.179448725  -1.398691092  -1.711286142
  H   -0.226178747  -0.674360834  -2.475844083
  H   -0.450033663   1.995079365  -2.265268427
  H    1.815509609   2.979936178  -1.371701930
  C   -2.190065898   0.666188650   0.537093276
  C   -1.957382668  -0.434937710   1.575229198
  C   -3.033115734  -1.513236393   1.417463158
  C   -0.529231650  -1.016198450   1.496714183
  C    0.541435804   0.060364004   1.689721740
  C   -0.305783355  -2.144012667   2.507861512
  H   -3.208894117   1.048134321   0.605490866
  H   -2.049274193   0.275188721  -0.472132965
  H   -1.512101871   1.506980175   0.661734902
  H   -2.069864860   0.009752652   2.570941832
  H   -2.909514106  -2.044088212   0.470664205
  H   -4.027345449  -1.066122440   1.416439278
  H   -3.005311673  -2.248556707   2.218556373
  H   -0.404192021  -1.431576336   0.491346232
  H    0.416721418   0.558910244   2.653875709
  H    0.511713547   0.816526003   0.910069068
  H    1.535629206  -0.386397493   1.676264383
  H   -0.492757540  -1.793497822   3.525609171
  H    0.725058139  -2.496275058   2.465969098
  H   -0.951711344  -3.000220153   2.325810594
