24
charge=0 charge_a=0 charge_b=0 selection_a=1-7 selection_b=8-24 scaling=1.10 benchmark_Eint=-2.309 benchmark_unit=kcal/mol group=HBCNO
  C   -1.047599123   2.342787152  -0.147910046
  C   -1.633436015   1.417981611  -0.634197879
  C   -2.338928708   0.292824198  -1.223843411
  H   -0.525171798   3.158619903   0.283134539
  H   -3.312397755   0.599721360  -1.606246474
  H   -2.497226181  -0.495764837  -0.488649509
  H   -1.770050180  -0.131545921  -2.051117142
  C   -0.085160407  -3.073926548  -0.216744307
  C    0.330912872  -2.015685493   0.800925049
  C    1.343337736  -1.016592632   0.248400210
  C    1.774373039   0.035506742   1.265692796
  C    2.739544725   1.063650514   0.683606200
  H   -0.816712704  -3.766981265   0.199017250
  H    0.774790949  -3.658072463  -0.547487660
  H   -0.527302612  -2.615599464  -1.102589924
  H    0.751180581  -2.504706918   1.683709515
  H   -0.550224536  -1.471098584   1.150126997
  H    0.914828470  -0.512562205  -0.621979801
  H    2.224404018  -1.555919712  -0.113404367
  H    2.235935261  -0.459793640   2.124251629
  H    0.885294652   0.544569170   1.643396059
  H    3.648432917   0.586204927   0.313780561
  H    3.033980952   1.804252356   1.427549263
  H    2.281274140   1.592932387  -0.152803531
