12
charge=0 charge_a=0 charge_b=0 selection_a=1-6 selection_b=7-12 scaling=0.80 benchmark_Eint=0.509 benchmark_unit=kcal/mol group=HBCNO
  C   -4.105136181   0.758452153  -1.918280683
  C   -3.125591009   0.482504115  -1.275688468
  C   -2.016011705   0.170524984  -0.548091003
  C   -1.035413242  -0.104482331   0.093509161
  H   -4.968501606   1.001452614  -2.484407706
  H   -0.169740273  -0.346002578   0.660377147
  C    1.359895082  -1.023145226   2.307306837
  C    1.831199587  -0.541276508   1.309932724
  C    2.345883926   0.007057331   0.173646139
  C    2.785426086   0.493225126  -0.835068823
  H    0.952069816  -1.448781007   3.189618787
  H    3.171763619   0.922341341  -1.725217565
