24
charge=0 charge_a=0 charge_b=0 selection_a=1-6 selection_b=7-24 scaling=1.10 benchmark_Eint=-1.485 benchmark_unit=kcal/mol group=HBCNO
  C   -2.542729754  -0.857384312  -2.231865015
  C   -1.797853130  -0.087212297  -3.009426583
  H   -2.109484391  -1.457742862  -1.443955595
  H   -3.616132815  -0.917225031  -2.351406086
  H   -0.725067842  -0.026466968  -2.889263379
  H   -2.231506285   0.514412550  -3.796885439
  C    1.296602845   0.604675010  -0.293627892
  C    1.835315804   1.314722998   0.950308673
  C    0.845883056   1.227566244   2.114506048
  C    0.466596242  -0.223501212   2.418543624
  C   -0.070985013  -0.931715706   1.173112783
  C    0.921460255  -0.846902427   0.011685291
  H    2.031331131   0.644590616  -1.099885380
  H    0.408997636   1.134352906  -0.651118721
  H    2.059935704   2.358012112   0.722399292
  H    2.780210651   0.849623214   1.247696803
  H   -0.058713154   1.786913511   1.857253786
  H    1.264412110   1.703235544   3.003023752
  H   -0.270391815  -0.261132727   3.222464806
  H    1.350999178  -0.756792659   2.780493574
  H   -1.011654092  -0.460828711   0.873319640
  H   -0.300576634  -1.974377743   1.400076884
  H    0.508472818  -1.327470369  -0.876645629
  H    1.826490100  -1.404180188   0.272058837
