28
charge=0 charge_a=0 charge_b=0 selection_a=1-11 selection_b=12-28 scaling=0.95 benchmark_Eint=-2.389 benchmark_unit=kcal/mol group=HBCNO
  C    1.169440910   2.527271818   0.175793725
  C   -0.049553587   2.421169867   1.044168005
  C   -1.107791623   2.105405927   0.279659653
  C   -0.677953275   1.982136888  -1.114518233
  C    0.640519416   2.223794804  -1.194950135
  H    1.948538807   1.819844459   0.477566226
  H    1.625667912   3.521142816   0.229260199
  H   -0.046285268   2.578304005   2.110622767
  H   -2.120719861   1.959772217   0.622258935
  H   -1.331524648   1.730777158  -1.935436459
  H    1.247849387   2.206141921  -2.085385644
  C   -1.216867680  -1.537680296  -0.443533420
  C    0.045308321  -2.161057621   0.163868226
  C   -0.300955906  -2.803272081   1.512237983
  C    0.595810349  -3.230699081  -0.786306807
  C    1.101900022  -1.070292356   0.374692406
  H   -1.985925245  -2.294228190  -0.606344563
  H   -0.996640997  -1.066265863  -1.401577754
  H   -1.627529155  -0.771851907   0.214435795
  H   -1.054543287  -3.583097035   1.393037038
  H   -0.693830366  -2.060717027   2.208058798
  H    0.580748994  -3.256202026   1.967947548
  H   -0.137154125  -4.021267101  -0.953684844
  H    1.497127500  -3.690313804  -0.378112999
  H    0.849600579  -2.798466190  -1.755219375
  H    0.729687465  -0.294501788   1.043481916
  H    1.363525946  -0.594025288  -0.570202969
  H    2.011667460  -1.487944065   0.808815095
