33
charge=0 charge_a=0 charge_b=0 selection_a=1-15 selection_b=16-33 scaling=1.05 benchmark_Eint=-2.938 benchmark_unit=kcal/mol group=HBCNO
  C   -2.318100000   0.034730000   1.181680000
  C   -2.675250000   1.189950000   0.241820000
  C   -2.539990000  -1.208090000   0.311510000
  C   -2.087660000   0.763400000  -1.115730000
  C   -2.084710000  -0.788630000  -1.105310000
  H   -1.268950000   0.105560000   1.474100000
  H   -2.911010000   0.025780000   2.095610000
  H   -3.761540000   1.277320000   0.170140000
  H   -2.294830000   2.152920000   0.580690000
  H   -2.007700000  -2.084260000   0.679450000
  H   -3.602150000  -1.458610000   0.303490000
  H   -2.652200000   1.170760000  -1.952760000
  H   -1.068990000   1.138240000  -1.212280000
  H   -1.085770000  -1.167690000  -1.316770000
  H   -2.741860000  -1.200110000  -1.869570000
  C    1.711424230   1.274629676   0.750451080
  C    1.966564230   0.002839676   1.562151080
  C    1.661314230  -1.256410324   0.748131080
  C    2.429464230  -1.269150324  -0.575228920
  C    2.167604230   0.001079676  -1.387058920
  C    2.478764230   1.259099676  -0.573398920
  H    1.983424230   2.155459676   1.334511080
  H    0.641734230   1.358859676   0.542061080
  H    1.371634230   0.013689676   2.477231080
  H    3.015474230  -0.018020324   1.873341080
  H    0.589594230  -1.297370324   0.539111080
  H    1.897704230  -2.148300324   1.330921080
  H    2.161714230  -2.152060324  -1.158248920
  H    3.501074230  -1.345940324  -0.367008920
  H    1.117644230   0.021619676  -1.691778920
  H    2.756704230  -0.009660324  -2.305638920
  H    2.245474230   2.152569676  -1.155118920
  H    3.552634230   1.293769676  -0.365488920
