35
charge=0 charge_a=0 charge_b=0 selection_a=1-20 selection_b=21-35 scaling=0.95 benchmark_Eint=-2.829 benchmark_unit=kcal/mol group=HBCNO
  C    1.098210580  -0.560578316  -1.715736372
  C    0.517852420   0.835464171  -1.957894645
  C   -0.414141856   1.206997242  -0.801678816
  C    1.619498770   1.893301645  -2.183201890
  C    2.548857928   1.526258838  -3.343435783
  C    1.040119458   3.290830088  -2.419142402
  H    0.302047251  -1.273540655  -1.507962759
  H    1.765171559  -0.555511514  -0.850609110
  H    1.661863943  -0.930101921  -2.569700397
  H   -0.081098070   0.795209918  -2.875298873
  H    0.153186871   1.354237416   0.119189875
  H   -1.133855514   0.412919672  -0.611779426
  H   -0.972715090   2.119673586  -0.997971304
  H    2.221258197   1.928561286  -1.267344024
  H    1.980266988   1.406443138  -4.268481621
  H    3.092357202   0.601307089  -3.163705314
  H    3.285217023   2.312741380  -3.509522101
  H    0.370639399   3.288875362  -3.282371589
  H    1.836079964   4.007633622  -2.621694669
  H    0.478695194   3.656740439  -1.562465269
  C   -0.185962857  -1.074002564   1.929050875
  C    1.263641860  -0.946287675   2.306825167
  C   -1.128438974  -0.159591712   2.397136515
  C   -2.458436514  -0.240900989   2.007518669
  C   -2.871832479  -1.245899280   1.141434385
  C   -1.944738411  -2.169500686   0.675702357
  C   -0.615299312  -2.082499402   1.068893812
  H    1.379357733  -0.566028588   3.320783334
  H    1.776290076  -0.251829011   1.637483991
  H    1.778545261  -1.903096521   2.239742727
  H   -0.814891095   0.628590776   3.069024406
  H   -3.172241616   0.480739523   2.379382585
  H   -3.906504487  -1.310903926   0.836462430
  H   -2.256069454  -2.958809564   0.005757982
  H    0.101058792  -2.803253749   0.698069347
