35
charge=0 charge_a=0 charge_b=0 selection_a=1-20 selection_b=21-35 scaling=0.85 benchmark_Eint=-1.425 benchmark_unit=kcal/mol group=HBCNO
  C    1.098210580  -0.560578316  -1.715736372
  C    0.517852420   0.835464171  -1.957894645
  C   -0.414141856   1.206997242  -0.801678816
  C    1.619498770   1.893301645  -2.183201890
  C    2.548857928   1.526258838  -3.343435783
  C    1.040119458   3.290830088  -2.419142402
  H    0.302047251  -1.273540655  -1.507962759
  H    1.765171559  -0.555511514  -0.850609110
  H    1.661863943  -0.930101921  -2.569700397
  H   -0.081098070   0.795209918  -2.875298873
  H    0.153186871   1.354237416   0.119189875
  H   -1.133855514   0.412919672  -0.611779426
  H   -0.972715090   2.119673586  -0.997971304
  H    2.221258197   1.928561286  -1.267344024
  H    1.980266988   1.406443138  -4.268481621
  H    3.092357202   0.601307089  -3.163705314
  H    3.285217023   2.312741380  -3.509522101
  H    0.370639399   3.288875362  -3.282371589
  H    1.836079964   4.007633622  -2.621694669
  H    0.478695194   3.656740439  -1.562465269
  C   -0.073297878  -0.943953382   1.734568578
  C    1.376306839  -0.816238493   2.112342870
  C   -1.015773995  -0.029542530   2.202654218
  C   -2.345771535  -0.110851807   1.813036372
  C   -2.759167500  -1.115850098   0.946952088
  C   -1.832073432  -2.039451504   0.481220060
  C   -0.502634333  -1.952450220   0.874411515
  H    1.492022712  -0.435979406   3.126301037
  H    1.888955055  -0.121779829   1.443001694
  H    1.891210240  -1.773047339   2.045260430
  H   -0.702226116   0.758639958   2.874542109
  H   -3.059576637   0.610788705   2.184900288
  H   -3.793839508  -1.180854744   0.641980133
  H   -2.143404475  -2.828760382  -0.188724315
  H    0.213723771  -2.673204567   0.503587050
