28
charge=0 charge_a=0 charge_b=0 selection_a=1-10 selection_b=11-28 scaling=1.05 benchmark_Eint=-3.997 benchmark_unit=kcal/mol group=HBCNO
  C   -0.940929117  -1.008787201  -1.381448725
  C   -0.578188504   0.272642866  -1.348417936
  C    0.646515853   0.783103460  -1.934562221
  C    1.017319337   2.063398209  -1.900381369
  H   -1.852793580  -1.350966200  -0.916383901
  H   -0.324265137  -1.756628120  -1.862650924
  H   -1.211470239   0.995050712  -0.846631619
  H    1.285874417   0.054784025  -2.422485762
  H    0.403425587   2.810496321  -1.415637621
  H    1.939777844   2.399434314  -2.350865049
  C    1.324539952  -1.446088085   1.889413485
  C    0.087584987  -2.051432748   2.195579466
  C   -1.033367836  -1.284331170   2.368256054
  C   -0.974879767   0.122428795   2.237955250
  C   -2.119867302   0.941520438   2.374300483
  C   -2.034245922   2.299879979   2.217867788
  C   -0.793889482   2.905350915   1.924708300
  C    0.333470114   2.139491565   1.789675848
  C    0.277039864   0.734290565   1.935049593
  C    1.415878901  -0.085973837   1.765403313
  H    2.200595816  -2.063464897   1.750094917
  H    0.028599561  -3.126419363   2.290694242
  H   -1.983831169  -1.746807887   2.598518972
  H   -3.069541817   0.475243794   2.600077044
  H   -2.917529766   2.914252132   2.320175029
  H   -0.738670518   3.978166971   1.805258297
  H    1.283605874   2.598561005   1.554332048
  H    2.360128850   0.380970695   1.521380100
