34
charge=0 charge_a=0 charge_b=0 selection_a=1-14 selection_b=15-34 scaling=1.10 benchmark_Eint=-3.169 benchmark_unit=kcal/mol group=HBCNO
  C    0.077435441   2.889514837   0.706844925
  C    0.622276988   2.323167132  -0.600571634
  C    1.863750986   1.455788994  -0.407293799
  C    2.410390657   0.893309790  -1.715626599
  H   -0.820408405   3.485175454   0.543312407
  H    0.815705907   3.526924837   1.195536971
  H   -0.178577616   2.090227980   1.402466052
  H    0.859035058   3.141759719  -1.285519027
  H   -0.152184590   1.731056090  -1.094615895
  H    1.623078902   0.635066945   0.272043737
  H    2.638655347   2.043880489   0.091631359
  H    1.657154721   0.294491402  -2.228963457
  H    3.279517941   0.257762189  -1.547335183
  H    2.709266745   1.694882248  -2.392619264
  C    1.274628571  -3.207683382  -1.195353287
  C    0.650855523  -2.597149947   0.056274704
  C   -0.595998085  -1.767485802  -0.238469955
  C   -1.231667392  -1.159999899   1.008180074
  C   -2.467960502  -0.314502527   0.713817029
  C   -3.101577020   0.276577731   1.969670543
  H    2.157673802  -3.799510024  -0.954642605
  H    1.576979466  -2.432506978  -1.900054966
  H    0.566249807  -3.860806020  -1.707235293
  H    1.388498940  -1.969289765   0.562563786
  H    0.394121051  -3.390955881   0.762686910
  H   -1.332250261  -2.393864653  -0.751081405
  H   -0.339675602  -0.968944348  -0.939613408
  H   -0.491083796  -0.545985771   1.528774953
  H   -1.500222621  -1.960770837   1.703829167
  H   -3.203598062  -0.927064065   0.185988001
  H   -2.196873606   0.491320161   0.027854512
  H   -3.411869918  -0.509744943   2.659438478
  H   -3.980426592   0.875429374   1.731173510
  H   -2.396938666   0.919185561   2.499099297
