24
charge=0 charge_a=0 charge_b=0 selection_a=1-6 selection_b=7-24 scaling=0.90 benchmark_Eint=-2.746 benchmark_unit=kcal/mol group=HBCNO
  C    1.863376164   0.830961683  -0.365347167
  C    2.239631084   0.788631466   0.776428516
  C    2.653805464   0.735308440   2.073302405
  C    3.019303462   0.688172978   3.219166374
  H    1.496574176   0.852223928  -1.361143973
  H    3.341740867   0.646816990   4.228568022
  C   -0.915040262  -0.014349147   2.382179831
  C   -0.392685337  -1.304494526   2.151181713
  C   -0.213753583  -1.759038592   0.872893184
  C   -0.536041354  -0.943445801  -0.236495400
  C   -0.318723145  -1.363583040  -1.569256205
  C   -0.598753532  -0.533296731  -2.622879344
  C   -1.121357932   0.757241734  -2.391791587
  C   -1.352560650   1.189448717  -1.112095098
  C   -1.064216074   0.360800064  -0.002959441
  C   -1.247967873   0.795094950   1.330233480
  H   -1.044324938   0.334531341   3.396661400
  H   -0.127456010  -1.930383290   2.991140322
  H    0.194118942  -2.744496362   0.693314484
  H    0.085118783  -2.351783779  -1.743499645
  H   -0.422280730  -0.864560160  -3.636430807
  H   -1.340407380   1.402922709  -3.230404799
  H   -1.749631796   2.179359324  -0.932099166
  H   -1.640818547   1.787522628   1.504813631
