32
charge=0 charge_a=0 charge_b=0 selection_a=1-17 selection_b=18-32 scaling=1.50 benchmark_Eint=-0.936 benchmark_unit=kcal/mol group=HBCNO
  C   -1.307169998  -1.527518703  -0.776894199
  C   -0.907494672  -0.714515092  -2.013935521
  C    0.620519084  -0.609769377  -2.088197515
  C   -1.432033878  -1.412398316  -3.274185411
  C   -1.513027711   0.691021885  -1.919072020
  H   -0.883399305  -2.531948490  -0.815038314
  H   -2.391479496  -1.623754182  -0.706929635
  H   -0.954654223  -1.050547302   0.136715499
  H    1.077411964  -1.598097893  -2.154325495
  H    1.023881958  -0.113813688  -1.205515119
  H    0.930566660  -0.037995713  -2.963872864
  H   -1.017149234  -2.417074246  -3.366261566
  H   -1.161515078  -0.854662566  -4.171792281
  H   -2.519072834  -1.499904299  -3.248927257
  H   -1.157889642   1.212540405  -1.029941301
  H   -2.601610069   0.644622931  -1.866986729
  H   -1.244607171   1.291927494  -2.788965537
  C    2.597291164   1.302982690   2.867843579
  C    1.986173536  -0.083834602   3.086224734
  C    1.398157218   2.164338589   2.441716850
  C    0.653478400   0.220305709   3.784496735
  C    0.174895574   1.565490912   3.182594635
  H    3.010201016   1.672917702   3.809135542
  H    3.403203756   1.308409456   2.134822715
  H    1.805229913  -0.562360149   2.121862859
  H    2.625149533  -0.749976142   3.664694886
  H    1.543470929   3.220267776   2.663576426
  H    1.257294228   2.085697421   1.363526839
  H   -0.078021281  -0.576663134   3.659123307
  H    0.822483858   0.330823106   4.856437154
  H   -0.184408026   2.234325437   3.962933007
  H   -0.656357674   1.415370602   2.495370778
