33
charge=0 charge_a=0 charge_b=0 selection_a=1-15 selection_b=16-33 scaling=1.25 benchmark_Eint=-2.103 benchmark_unit=kcal/mol group=HBCNO
  C   -2.318100000   0.034730000   1.181680000
  C   -2.675250000   1.189950000   0.241820000
  C   -2.539990000  -1.208090000   0.311510000
  C   -2.087660000   0.763400000  -1.115730000
  C   -2.084710000  -0.788630000  -1.105310000
  H   -1.268950000   0.105560000   1.474100000
  H   -2.911010000   0.025780000   2.095610000
  H   -3.761540000   1.277320000   0.170140000
  H   -2.294830000   2.152920000   0.580690000
  H   -2.007700000  -2.084260000   0.679450000
  H   -3.602150000  -1.458610000   0.303490000
  H   -2.652200000   1.170760000  -1.952760000
  H   -1.068990000   1.138240000  -1.212280000
  H   -1.085770000  -1.167690000  -1.316770000
  H   -2.741860000  -1.200110000  -1.869570000
  C    2.186121151   1.275068381   0.770455402
  C    2.441261151   0.003278381   1.582155402
  C    2.136011151  -1.255971619   0.768135402
  C    2.904161151  -1.268711619  -0.555224598
  C    2.642301151   0.001518381  -1.367054598
  C    2.953461151   1.259538381  -0.553394598
  H    2.458121151   2.155898381   1.354515402
  H    1.116431151   1.359298381   0.562065402
  H    1.846331151   0.014128381   2.497235402
  H    3.490171151  -0.017581619   1.893345402
  H    1.064291151  -1.296931619   0.559115402
  H    2.372401151  -2.147861619   1.350925402
  H    2.636411151  -2.151621619  -1.138244598
  H    3.975771151  -1.345501619  -0.347004598
  H    1.592341151   0.022058381  -1.671774598
  H    3.231401151  -0.009221619  -2.285634598
  H    2.720171151   2.153008381  -1.135114598
  H    4.027331151   1.294208381  -0.345484598
