25
charge=0 charge_a=0 charge_b=0 selection_a=1-17 selection_b=18-25 scaling=1.25 benchmark_Eint=-1.046 benchmark_unit=kcal/mol group=HBCNO
  C    0.468857906   1.853759805  -0.558066938
  C   -0.759634097   1.030703040  -0.152578806
  C   -0.561438673   0.480439962   1.264942952
  C   -2.005586484   1.923556939  -0.182847050
  C   -0.941331357  -0.132434398  -1.135257482
  H    0.622905680   2.689744360   0.125554145
  H    0.352531991   2.260316346  -1.563607736
  H    1.371312084   1.241499573  -0.547592158
  H   -0.438527688   1.291299024   1.984195734
  H    0.322949943  -0.153860579   1.320892573
  H   -1.420143964  -0.115907359   1.576288482
  H   -1.903289839   2.761519612   0.508042893
  H   -2.896247526   1.361645275   0.101744652
  H   -2.171110919   2.330640539  -1.181271741
  H   -0.063415863  -0.777981056  -1.145456065
  H   -1.097658163   0.235546680  -2.150201510
  H   -1.804118762  -0.742388000  -0.864013345
  C    2.809937374  -2.597091253  -0.032308407
  C    1.822764317  -3.428194704   0.782114006
  H    2.704054191  -1.533317340   0.179887724
  H    2.655955861  -2.733885947  -1.102789415
  H    3.840353562  -2.874362831   0.190034504
  H    0.792485984  -3.156859315   0.554213918
  H    1.970628137  -3.282855024   1.852299546
  H    1.936817305  -4.492305098   0.575422801
