28
charge=0 charge_a=0 charge_b=0 selection_a=1-10 selection_b=11-28 scaling=2.00 benchmark_Eint=-0.220 benchmark_unit=kcal/mol group=HBCNO
  C   -0.940929117  -1.008787201  -1.381448725
  C   -0.578188504   0.272642866  -1.348417936
  C    0.646515853   0.783103460  -1.934562221
  C    1.017319337   2.063398209  -1.900381369
  H   -1.852793580  -1.350966200  -0.916383901
  H   -0.324265137  -1.756628120  -1.862650924
  H   -1.211470239   0.995050712  -0.846631619
  H    1.285874417   0.054784025  -2.422485762
  H    0.403425587   2.810496321  -1.415637621
  H    1.939777844   2.399434314  -2.350865049
  C    1.030860963  -1.521594171   4.693045277
  C   -0.206094002  -2.126938834   4.999211258
  C   -1.327046825  -1.359837256   5.171887846
  C   -1.268558756   0.046922709   5.041587042
  C   -2.413546291   0.866014352   5.177932275
  C   -2.327924911   2.224373893   5.021499580
  C   -1.087568471   2.829844829   4.728340092
  C    0.039791125   2.063985479   4.593307640
  C   -0.016639125   0.658784479   4.738681385
  C    1.122199912  -0.161479923   4.569035105
  H    1.906916827  -2.138970983   4.553726709
  H   -0.265079428  -3.201925449   5.094326034
  H   -2.277510158  -1.822313973   5.402150764
  H   -3.363220806   0.399737708   5.403708836
  H   -3.211208755   2.838746046   5.123806821
  H   -1.032349507   3.902660885   4.608890089
  H    0.989926885   2.523054919   4.357963840
  H    2.066449861   0.305464609   4.325011892
