27
charge=0 charge_a=0 charge_b=0 selection_a=1-9 selection_b=10-27 scaling=0.85 benchmark_Eint=-1.150 benchmark_unit=kcal/mol group=HBCNO
  N   -1.781163249  -0.975944016  -1.289656130
  C   -1.650669170   0.344914974  -1.203861815
  N   -0.662397082   1.059480777  -1.735349117
  C    0.242589074   0.343230591  -2.397253339
  N    0.221644351  -0.978275880  -2.548415410
  C   -0.813742428  -1.583119811  -1.971659444
  H   -2.409731305   0.883768733  -0.650484945
  H    1.067252183   0.881289949  -2.848638827
  H   -0.873330455  -2.660601744  -2.064364125
  C   -0.410751217   1.173808243   1.716482230
  C   -0.533098687  -0.351605774   1.696381359
  C    0.663319186  -0.999022059   0.996407150
  C    1.986541168  -0.553638064   1.622064616
  C    2.107459464   0.971744995   1.638966426
  C    0.912736409   1.619116666   2.342779712
  H   -1.251283370   1.612802109   2.256892043
  H   -0.462067976   1.554841817   0.692837220
  H   -1.461868966  -0.655835735   1.212113415
  H   -0.585300795  -0.719390109   2.725583610
  H    0.661449388  -0.714417417  -0.058868191
  H    0.575581635  -2.086292914   1.024502761
  H    2.826699372  -0.994333941   1.082863215
  H    2.042137545  -0.929041150   2.648363926
  H    2.156292167   1.338384914   0.609038370
  H    3.039203282   1.272059058   2.121101294
  H    0.998716348   2.706416702   2.310151623
  H    0.923514039   1.336083864   3.399803151
