16
charge=0 charge_a=0 charge_b=0 selection_a=1-4 selection_b=5-16 scaling=0.80 benchmark_Eint=-0.985 benchmark_unit=kcal/mol group=HBCNO
  N    1.933423035  -0.047291558  -1.821139493
  N    0.821505038   0.054918082  -1.677592249
  N   -0.400556129   0.190382231  -1.677968579
  H   -0.771207802   0.093179899  -0.733499488
  C   -1.501661755   0.313425221   1.206788401
  C   -0.370555230   1.113518895   1.336300339
  C    0.895646454   0.543859368   1.265788190
  C    1.032211852  -0.825443479   1.065187220
  C   -0.097116949  -1.625128024   0.933872219
  C   -1.364691681  -1.056166512   1.005088695
  H   -2.486001913   0.756275775   1.260018753
  H   -0.476790155   2.178191939   1.487422563
  H    1.774345335   1.165557706   1.360311499
  H    2.016805873  -1.265782264   1.001681087
  H    0.009243155  -2.688152367   0.771748562
  H   -2.242648383  -1.677414366   0.900267951
