18
charge=0 charge_a=0 charge_b=0 selection_a=1-8 selection_b=9-18 scaling=1.10 benchmark_Eint=-3.437 benchmark_unit=kcal/mol group=HBCNO
  N   -1.397530931   0.455407810  -0.891722077
  C   -0.442642770   1.397406615  -0.810395663
  N    0.485452065   1.166701917  -1.716524835
  C    0.037716774   0.039451043  -2.334830533
  N   -1.100618078  -0.434481077  -1.864806152
  H   -2.203327382   0.313884551  -0.308884477
  H   -0.455167090   2.196876544  -0.091180663
  H    0.560026916  -0.438420414  -3.145008826
  C    2.095472594   0.671784581   1.969024652
  C    1.240644337  -0.242798524   2.429997801
  C    0.572603035  -1.223787206   1.594255825
  C   -0.313322394  -2.113750927   2.043570474
  H    2.572413390   1.381394310   2.629336351
  H    2.338154660   0.735695177   0.916647822
  H    1.011551592  -0.275956696   3.490198512
  H    0.824724485  -1.211782687   0.540152361
  H   -0.584611250  -2.160207065   3.090552246
  H   -0.786089913  -2.822866578   1.380089743
