15
charge=0 charge_a=0 charge_b=0 selection_a=1-9 selection_b=10-15 scaling=1.50 benchmark_Eint=-0.613 benchmark_unit=kcal/mol group=HBCNO
  N    0.418718593  -0.078228714  -1.721915464
  C    0.354995833   1.072026460  -1.056781855
  N    1.063122651   1.377709985   0.027043975
  C    1.876746849   0.412679943   0.444087327
  N    2.021647379  -0.779081190  -0.129872535
  C    1.267201801  -0.964483419  -1.210212499
  H   -0.332601231   1.821587621  -1.427410121
  H    2.471196299   0.613056383   1.327224468
  H    1.350300738  -1.919419889  -1.714841310
  C   -2.209834767  -1.842220019   2.315979771
  C   -2.998896402  -1.020668708   1.928948067
  C   -3.883408496  -0.085209966   1.483166145
  C   -4.658799606   0.744107835   1.084869210
  H   -1.503835393  -2.560768111   2.648568359
  H   -5.345861818   1.473505680   0.736671770
