24
charge=0 charge_a=0 charge_b=0 selection_a=1-4 selection_b=5-24 scaling=1.00 benchmark_Eint=-1.603 benchmark_unit=kcal/mol group=HBCNO
  N   -3.128608539   1.428503974   0.156478473
  H   -2.958967056   0.773769018  -0.596148249
  H   -4.036190703   1.846585112  -0.004175487
  H   -2.438644461   2.164341226   0.074217649
  C    0.506352070  -1.357040301  -0.449598450
  C    0.952991949  -0.046340643   0.232573374
  C    0.162011011   0.190280972   1.525587593
  C    2.442470051  -0.175876751   0.576301561
  C    0.766833945   1.147662259  -0.712221137
  C   -0.951887194  -1.428701234  -0.897665047
  H    0.704238309  -2.180071203   0.241940362
  H    1.152278817  -1.527134173  -1.315192274
  H   -0.900126746   0.338055763   1.338538787
  H    0.270704884  -0.655844640   2.206041488
  H    0.531647344   1.078264538   2.040599084
  H    3.040424343  -0.338820277  -0.321634413
  H    2.615514507  -1.015490325   1.250908652
  H    2.810381151   0.727090652   1.065137333
  H    1.312664972   0.998549159  -1.645285805
  H   -0.281379687   1.307080247  -0.961153563
  H    1.138898302   2.063132452  -0.250642453
  H   -1.638545193  -1.286476306  -0.064556512
  H   -1.176941135  -0.676600792  -1.654206265
  H   -1.166961567  -2.402071849  -1.338148336
