15
charge=0 charge_a=0 charge_b=0 selection_a=1-9 selection_b=10-15 scaling=1.05 benchmark_Eint=-2.877 benchmark_unit=kcal/mol group=HBCNO
  N    0.418718593  -0.078228714  -1.721915464
  C    0.354995833   1.072026460  -1.056781855
  N    1.063122651   1.377709985   0.027043975
  C    1.876746849   0.412679943   0.444087327
  N    2.021647379  -0.779081190  -0.129872535
  C    1.267201801  -0.964483419  -1.210212499
  H   -0.332601231   1.821587621  -1.427410121
  H    2.471196299   0.613056383   1.327224468
  H    1.350300738  -1.919419889  -1.714841310
  C   -0.896861998  -1.635735613   1.657048703
  C   -1.685923633  -0.814184302   1.270016999
  C   -2.570435727   0.121274440   0.824235077
  C   -3.345826837   0.950592241   0.425938142
  H   -0.190862624  -2.354283705   1.989637291
  H   -4.032889049   1.679990086   0.077740702
