11
charge=0 charge_a=0 charge_b=0 selection_a=1-5 selection_b=6-11 scaling=0.90 benchmark_Eint=-1.139 benchmark_unit=kcal/mol group=HBCNO
  N    0.502371978  -0.815755775   3.657552124
  N    0.354501451  -0.592406193   2.557788023
  C    0.185772664  -0.337588920   1.304895665
  H    0.524707965  -1.063121183   0.588296632
  H   -0.285911445   0.589059666   1.033162894
  C   -1.035898175   2.099265872  -1.260112849
  C   -0.570056886   1.041428598  -1.594675167
  C   -0.041883342  -0.157584457  -1.969141113
  C    0.424993090  -1.217254864  -2.296199931
  H   -1.447432580   3.033690004  -0.971654644
  H    0.835255504  -2.150162424  -2.591256909
