19
charge=0 charge_a=0 charge_b=0 selection_a=1-2 selection_b=3-19 scaling=1.50 benchmark_Eint=-0.127 benchmark_unit=kcal/mol group=HBCNO
  N   -0.569170445  -3.605423279   0.444103416
  N   -1.194600622  -3.299291167   1.282552703
  C    2.024093250   3.126502583  -0.156091302
  C    0.586197030   2.835591376  -0.601965721
  C   -0.372212104   3.807276538   0.096732793
  C    0.476325592   3.012535603  -2.121013634
  C    0.216823228   1.396015469  -0.227623849
  H    2.313942136   4.146598906  -0.411517841
  H    2.728312751   2.447390674  -0.638590025
  H    2.130544190   3.008327647   0.923095217
  H   -0.131332536   4.841492435  -0.152742322
  H   -0.314411822   3.701976609   1.180917638
  H   -1.404522448   3.622031413  -0.203166728
  H    0.734423888   4.030509155  -2.415951701
  H   -0.538760297   2.811045073  -2.465854651
  H    1.149115723   2.331439781  -2.643840544
  H    0.286389372   1.241049708   0.849870722
  H    0.883432109   0.681511559  -0.712202832
  H   -0.803604853   1.161662909  -0.533563429
