26
charge=0 charge_a=0 charge_b=0 selection_a=1-9 selection_b=10-26 scaling=0.85 benchmark_Eint=-0.819 benchmark_unit=kcal/mol group=HBCNO
  N   -0.340084208  -0.247644085  -2.074231306
  C   -1.378875607   0.404884842  -1.560161112
  N   -1.351880805   1.647178126  -1.084765779
  C   -0.161567632   2.237315740  -1.150555887
  N    0.947906508   1.687761210  -1.637398884
  C    0.796073207   0.444252661  -2.084721502
  H   -2.325268101  -0.119869783  -1.522611373
  H   -0.088773128   3.250247188  -0.773575231
  H    1.672206867  -0.047212232  -2.489975964
  C   -1.695424819  -0.976278698   1.351929878
  C   -0.329306718  -0.870332647   2.031130588
  C    0.206730838  -2.259938838   2.377235713
  C    0.642958273  -0.075532071   1.151230955
  C    1.992032703   0.232201772   1.794295966
  H   -2.412813653  -1.500466348   1.983728747
  H   -1.614621756  -1.529936457   0.413964559
  H   -2.103029587   0.009168463   1.124902036
  H   -0.458912335  -0.314413152   2.965944541
  H    0.381756511  -2.839550041   1.468046433
  H   -0.507057951  -2.811679125   2.989370604
  H    1.144763781  -2.211408072   2.927923248
  H    0.161822557   0.864427963   0.874359052
  H    0.797839489  -0.627256479   0.220001082
  H    1.862637927   0.761941300   2.739602675
  H    2.598380384   0.860936038   1.142587370
  H    2.561624990  -0.673579199   1.998145623
