11
charge=0 charge_a=0 charge_b=0 selection_a=1-5 selection_b=6-11 scaling=0.80 benchmark_Eint=1.338 benchmark_unit=kcal/mol group=HBCNO
  N    0.502371978  -0.815755775   3.657552124
  N    0.354501451  -0.592406193   2.557788023
  C    0.185772664  -0.337588920   1.304895665
  H    0.524707965  -1.063121183   0.588296632
  H   -0.285911445   0.589059666   1.033162894
  C   -0.992196613   2.030793570  -0.973533743
  C   -0.526355324   0.972956296  -1.308096061
  C    0.001818220  -0.226056759  -1.682562007
  C    0.468694652  -1.285727166  -2.009620825
  H   -1.403731018   2.965217702  -0.685075538
  H    0.878957066  -2.218634726  -2.304677803
