24
charge=0 charge_a=0 charge_b=0 selection_a=1-4 selection_b=5-24 scaling=0.90 benchmark_Eint=-1.276 benchmark_unit=kcal/mol group=HBCNO
  N   -3.128608539   1.428503974   0.156478473
  H   -2.958967056   0.773769018  -0.596148249
  H   -4.036190703   1.846585112  -0.004175487
  H   -2.438644461   2.164341226   0.074217649
  C    0.278829295  -1.252490937  -0.446442190
  C    0.725469174   0.058208721   0.235729634
  C   -0.065511764   0.294830336   1.528743853
  C    2.214947276  -0.071327387   0.579457821
  C    0.539311170   1.252211623  -0.709064877
  C   -1.179409969  -1.324151870  -0.894508787
  H    0.476715534  -2.075521839   0.245096622
  H    0.924756042  -1.422584809  -1.312036014
  H   -1.127649521   0.442605127   1.341695047
  H    0.043182109  -0.551295276   2.209197748
  H    0.304124569   1.182813902   2.043755344
  H    2.812901568  -0.234270913  -0.318478153
  H    2.387991732  -0.910940961   1.254064912
  H    2.582858376   0.831640016   1.068293593
  H    1.085142197   1.103098523  -1.642129545
  H   -0.508902462   1.411629611  -0.957997303
  H    0.911375527   2.167681816  -0.247486193
  H   -1.866067968  -1.181926942  -0.061400252
  H   -1.404463910  -0.572051428  -1.651050005
  H   -1.394484342  -2.297522485  -1.334992076
