11
charge=0 charge_a=0 charge_b=0 selection_a=1-5 selection_b=6-11 scaling=1.05 benchmark_Eint=-1.491 benchmark_unit=kcal/mol group=HBCNO
  N    0.502371978  -0.815755775   3.657552124
  N    0.354501451  -0.592406193   2.557788023
  C    0.185772664  -0.337588920   1.304895665
  H    0.524707965  -1.063121183   0.588296632
  H   -0.285911445   0.589059666   1.033162894
  C   -1.101450517   2.201974326  -1.689981508
  C   -0.635609228   1.144137052  -2.024543826
  C   -0.107435684  -0.054876003  -2.399009772
  C    0.359440748  -1.114546410  -2.726068590
  H   -1.512984922   3.136398458  -1.401523303
  H    0.769703162  -2.047453970  -3.021125568
