18
charge=0 charge_a=0 charge_b=0 selection_a=1-8 selection_b=9-18 scaling=1.50 benchmark_Eint=-1.209 benchmark_unit=kcal/mol group=HBCNO
  N   -1.397530931   0.455407810  -0.891722077
  C   -0.442642770   1.397406615  -0.810395663
  N    0.485452065   1.166701917  -1.716524835
  C    0.037716774   0.039451043  -2.334830533
  N   -1.100618078  -0.434481077  -1.864806152
  H   -2.203327382   0.313884551  -0.308884477
  H   -0.455167090   2.196876544  -0.091180663
  H    0.560026916  -0.438420414  -3.145008826
  C    2.504006345   0.309630033   2.989057139
  C    1.649178088  -0.604953072   3.450030288
  C    0.981136786  -1.585941754   2.614288312
  C    0.095211357  -2.475905475   3.063602961
  H    2.980947141   1.019239762   3.649368838
  H    2.746688411   0.373540629   1.936680309
  H    1.420085343  -0.638111244   4.510230999
  H    1.233258236  -1.573937235   1.560184848
  H   -0.176077499  -2.522361613   4.110584733
  H   -0.377556162  -3.185021126   2.400122230
