18
charge=0 charge_a=0 charge_b=0 selection_a=1-9 selection_b=10-18 scaling=0.95 benchmark_Eint=-2.388 benchmark_unit=kcal/mol group=HBCNO
  N   -1.190764296  -1.398818513  -0.492781360
  C   -0.369588706  -0.456448222  -0.034350522
  N    0.870908024  -0.240224303  -0.469450588
  C    1.269714873  -1.059899387  -1.438145331
  N    0.541059788  -2.035324043  -1.974338184
  C   -0.680632741  -2.155516338  -1.460536243
  H   -0.734679593   0.186338834   0.757082873
  H    2.272733380  -0.921623452  -1.823640303
  H   -1.313276328  -2.936370716  -1.865141744
  C   -0.972532617   2.075897596   2.734564523
  C    0.247973202   2.174958479   2.223098136
  C    0.606890267   2.928993454   0.983304367
  H   -1.166900674   1.510216479   3.634878782
  H   -1.821178655   2.563519749   2.270764690
  H    1.066879411   1.668281497   2.723705511
  H   -0.266385697   3.405684983   0.539482281
  H    1.053390884   2.260162032   0.245478557
  H    1.346331103   3.703088721   1.199267901
