16
charge=0 charge_a=0 charge_b=0 selection_a=1-4 selection_b=5-16 scaling=2.00 benchmark_Eint=-0.700 benchmark_unit=kcal/mol group=HBCNO
  N    1.933423035  -0.047291558  -1.821139493
  N    0.821505038   0.054918082  -1.677592249
  N   -0.400556129   0.190382231  -1.677968579
  H   -0.771207802   0.093179899  -0.733499488
  C   -2.514605705  -0.019075501   4.131574157
  C   -1.383499180   0.781018173   4.261086095
  C   -0.117297496   0.211358646   4.190573946
  C    0.019267902  -1.157944201   3.989972976
  C   -1.110060899  -1.957628746   3.858657975
  C   -2.377635631  -1.388667234   3.929874451
  H   -3.498945863   0.423775053   4.184804509
  H   -1.489734105   1.845691217   4.412208319
  H    0.761401385   0.833056984   4.285097255
  H    1.003861923  -1.598282986   3.926466843
  H   -1.003700795  -3.020653089   3.696534318
  H   -3.255592333  -2.009915088   3.825053707
