20
charge=0 charge_a=0 charge_b=0 selection_a=1-2 selection_b=3-20 scaling=0.90 benchmark_Eint=-0.574 benchmark_unit=kcal/mol group=HBCNO
  N   -0.436558510   0.596732724  -2.995872498
  N   -1.293205702  -0.046130774  -3.197892131
  C   -1.384580269   0.320871311   0.443511391
  C   -1.118370132  -1.115083893  -0.012944066
  C    0.377798373  -1.373000004  -0.202826588
  C    1.168297164  -1.033557428   1.062829787
  C    0.902345480   0.402909191   1.518362139
  C   -0.593982297   0.660488167   1.709029424
  H   -2.452119905   0.472368884   0.611786239
  H   -1.093180310   1.011012200  -0.353746078
  H   -1.660217925  -1.326233038  -0.936093623
  H   -1.507863614  -1.807479011   0.739573218
  H    0.746608637  -0.756700141  -1.027981310
  H    0.549051370  -2.412056199  -0.489130965
  H    2.235660174  -1.185315369   0.893838633
  H    0.877675401  -1.722207853   1.862092884
  H    1.291289010   1.094860998   0.765081263
  H    1.443093521   0.612863742   2.442689336
  H   -0.765591166   1.699708542   1.994400838
  H   -0.960657751   0.044973943   2.536207265
