15
charge=0 charge_a=0 charge_b=0 selection_a=1-7 selection_b=8-15 scaling=1.10 benchmark_Eint=-2.650 benchmark_unit=kcal/mol group=HBCNO
  C    0.626776270  -0.147446470  -1.986559095
  N   -0.726659949  -0.488273757  -1.570159463
  H    1.332979867  -0.003227961  -1.157521744
  H    0.604766303   0.770873767  -2.572109237
  H    1.017891264  -0.937099956  -2.626939787
  H   -1.105398602   0.235865167  -0.973734983
  H   -0.723770763  -1.340220132  -1.024415298
  C    0.004715241   0.344962477   1.825081108
  C    1.278656660   0.663283585   1.605627785
  C    1.648694974  -0.863768914   1.536438896
  C    0.374921037  -1.182764164   1.755951370
  H   -0.901866740   0.900784708   2.001967457
  H    1.832503920   1.583841526   1.520484395
  H    2.560077355  -1.418481064   1.384451305
  H   -0.173451153  -2.104324297   1.866329728
