26
charge=0 charge_a=0 charge_b=0 selection_a=1-8 selection_b=9-26 scaling=2.00 benchmark_Eint=-0.144 benchmark_unit=kcal/mol group=HBCNO
  N   -1.963106368  -0.349289630   2.018504089
  C   -0.922855742   0.395218879   2.435191945
  N   -0.977998368   1.585608447   1.876432771
  C   -2.097592571   1.512253768   1.105760906
  N   -2.730627481   0.356165720   1.157519954
  H   -2.203253819  -1.297693182   2.246292013
  H   -0.173790331   0.040534784   3.121419356
  H   -2.449109308   2.324777446   0.494625602
  C    4.746546514  -0.928401487  -4.406622946
  C    4.397990958   0.113259147  -3.341233354
  C    2.893824172   0.152242560  -3.064400940
  C    2.359141770  -1.231748817  -2.691603928
  C    2.707360016  -2.274312739  -3.756047352
  C    4.212245836  -2.312353026  -4.030963246
  H    5.826517375  -0.968881645  -4.559022277
  H    4.307920328  -0.623586007  -5.361798279
  H    4.751836630   1.099468099  -3.646277819
  H    4.925266489  -0.132850378  -2.414132245
  H    2.373665735   0.504204921  -3.960882104
  H    2.670683167   0.864985892  -2.271005034
  H    1.279982171  -1.190116832  -2.541245351
  H    2.799440447  -1.536397904  -1.736659913
  H    2.180389104  -2.027420437  -4.682745048
  H    2.353521896  -3.261234851  -3.451698524
  H    4.435005803  -3.031627088  -4.821039606
  H    4.731100431  -2.664167523  -3.133651606
