22
charge=0 charge_a=0 charge_b=0 selection_a=1-4 selection_b=5-22 scaling=1.10 benchmark_Eint=-1.128 benchmark_unit=kcal/mol group=HBCNO
  N   -3.308112686  -2.152973365  -0.131227576
  H   -3.053058234  -1.298891675   0.347866229
  H   -3.354440586  -1.936239131  -1.118809245
  H   -4.243643385  -2.399164042   0.166287745
  C    0.194703388  -0.534506278  -0.734382616
  C    1.546877430  -0.836745330  -0.084967693
  C    2.395061222   0.428229399   0.062234747
  C    1.642442525   1.519561959   0.826564051
  C    0.291056747   1.825606695   0.177206591
  C   -0.555871620   0.559721729   0.028327054
  H   -0.409361662  -1.440637411  -0.784417343
  H    0.358402658  -0.202626135  -1.764459335
  H    2.084376267  -1.587574660  -0.666318081
  H    1.377347251  -1.272379794   0.904354984
  H    2.655133411   0.803070341  -0.932545083
  H    3.336445508   0.196858743   0.563424682
  H    2.246788121   2.426310846   0.885887078
  H    1.477511696   1.186617344   1.855903234
  H    0.459871829   2.260317891  -0.812742258
  H   -0.247363027   2.575751112   0.759002600
  H   -1.496290876   0.795784769  -0.474210154
  H   -0.814540353   0.185784396   1.024367721
