26
charge=0 charge_a=0 charge_b=0 selection_a=1-9 selection_b=10-26 scaling=1.10 benchmark_Eint=-2.436 benchmark_unit=kcal/mol group=HBCNO
  N   -0.340084208  -0.247644085  -2.074231306
  C   -1.378875607   0.404884842  -1.560161112
  N   -1.351880805   1.647178126  -1.084765779
  C   -0.161567632   2.237315740  -1.150555887
  N    0.947906508   1.687761210  -1.637398884
  C    0.796073207   0.444252661  -2.084721502
  H   -2.325268101  -0.119869783  -1.522611373
  H   -0.088773128   3.250247188  -0.773575231
  H    1.672206867  -0.047212232  -2.489975964
  C   -1.616290339  -1.322245155   1.984456010
  C   -0.250172238  -1.216299104   2.663656720
  C    0.285865318  -2.605905295   3.009761845
  C    0.722092753  -0.421498528   1.783757087
  C    2.071167183  -0.113764685   2.426822098
  H   -2.333679173  -1.846432805   2.616254879
  H   -1.535487276  -1.875902914   1.046490691
  H   -2.023895107  -0.336797994   1.757428168
  H   -0.379777855  -0.660379609   3.598470673
  H    0.460890991  -3.185516498   2.100572565
  H   -0.427923471  -3.157645582   3.621896736
  H    1.223898261  -2.557374529   3.560449380
  H    0.240957037   0.518461506   1.506885184
  H    0.876973969  -0.973222936   0.852527214
  H    1.941772407   0.415974843   3.372128807
  H    2.677514864   0.514969581   1.775113502
  H    2.640759470  -1.019545656   2.630671755
