15
charge=0 charge_a=0 charge_b=0 selection_a=1-4 selection_b=5-15 scaling=1.50 benchmark_Eint=-0.682 benchmark_unit=kcal/mol group=HBCNO
  N    1.703276650   0.571449594  -1.606195245
  N    0.669238483   0.135332681  -1.528044955
  N   -0.449086997  -0.377596723  -1.602435816
  H   -0.914061711  -0.347572044  -0.698072832
  C   -1.117667482   1.862329817   2.547969331
  C   -1.351743180   0.413834635   2.969711621
  C   -0.055322134  -0.369212692   3.161739681
  H   -2.056730158   2.397022105   2.409096105
  H   -0.559284761   1.923527130   1.612630644
  H   -0.538165238   2.395206824   3.302569590
  H   -1.985390500  -0.091002668   2.232977217
  H   -1.926454199   0.395662159   3.897767393
  H    0.540568604  -0.390582367   2.248082896
  H   -0.248790340  -1.400364321   3.455499694
  H    0.561216762   0.088714715   3.935974616
