14
charge=0 charge_a=0 charge_b=0 selection_a=1-2 selection_b=3-14 scaling=0.80 benchmark_Eint=4.238 benchmark_unit=kcal/mol group=HBCNO
  N    1.225877824   0.359486318  -2.016629033
  N    0.366100671   0.981899443  -2.264605166
  C   -1.568417008   0.473325576  -0.305037901
  C   -0.731566118   1.373911876   0.343780063
  C    0.498814053   0.951180795   0.832303230
  C    0.893385252  -0.371621054   0.670366055
  C    0.055818209  -1.272586911   0.023013960
  C   -1.175402176  -0.850312355  -0.463780373
  H   -2.523598792   0.803310251  -0.688271508
  H   -1.036743219   2.403655522   0.465196429
  H    1.150798483   1.651929259   1.334543170
  H    1.852485285  -0.699426216   1.045596576
  H    0.363926242  -2.300720623  -0.104382800
  H   -1.825670691  -1.550138619  -0.969516674
