26
charge=0 charge_a=0 charge_b=0 selection_a=1-8 selection_b=9-26 scaling=1.50 benchmark_Eint=-0.614 benchmark_unit=kcal/mol group=HBCNO
  N   -1.963106368  -0.349289630   2.018504089
  C   -0.922855742   0.395218879   2.435191945
  N   -0.977998368   1.585608447   1.876432771
  C   -2.097592571   1.512253768   1.105760906
  N   -2.730627481   0.356165720   1.157519954
  H   -2.203253819  -1.297693182   2.246292013
  H   -0.173790331   0.040534784   3.121419356
  H   -2.449109308   2.324777446   0.494625602
  C    3.778582074  -0.608620810  -3.443107981
  C    3.430026518   0.433039824  -2.377718389
  C    1.925859732   0.472023237  -2.100885975
  C    1.391177330  -0.911968140  -1.728088963
  C    1.739395576  -1.954532062  -2.792532387
  C    3.244281396  -1.992572349  -3.067448281
  H    4.858552935  -0.649100968  -3.595507312
  H    3.339955888  -0.303805330  -4.398283314
  H    3.783872190   1.419248776  -2.682762854
  H    3.957302049   0.186930299  -1.450617280
  H    1.405701295   0.823985598  -2.997367139
  H    1.702718727   1.184766569  -1.307490069
  H    0.312017731  -0.870336155  -1.577730386
  H    1.831476007  -1.216617227  -0.773144948
  H    1.212424664  -1.707639760  -3.719230083
  H    1.385557456  -2.941454174  -2.488183559
  H    3.467041363  -2.711846411  -3.857524641
  H    3.763135991  -2.344386846  -2.170136641
