15
charge=0 charge_a=0 charge_b=0 selection_a=1-7 selection_b=8-15 scaling=0.85 benchmark_Eint=-0.159 benchmark_unit=kcal/mol group=HBCNO
  C    0.626776270  -0.147446470  -1.986559095
  N   -0.726659949  -0.488273757  -1.570159463
  H    1.332979867  -0.003227961  -1.157521744
  H    0.604766303   0.770873767  -2.572109237
  H    1.017891264  -0.937099956  -2.626939787
  H   -1.105398602   0.235865167  -0.973734983
  H   -0.723770763  -1.340220132  -1.024415298
  C   -0.156077334   0.334128639   1.195420350
  C    1.117864085   0.652449747   0.975967027
  C    1.487902399  -0.874602752   0.906778138
  C    0.214128462  -1.193598002   1.126290612
  H   -1.062659315   0.889950870   1.372306699
  H    1.671711345   1.573007688   0.890823637
  H    2.399284780  -1.429314902   0.754790547
  H   -0.334243728  -2.115158135   1.236668970
