24
charge=0 charge_a=0 charge_b=0 selection_a=1-4 selection_b=5-24 scaling=1.10 benchmark_Eint=-1.463 benchmark_unit=kcal/mol group=HBCNO
  N   -3.128608539   1.428503974   0.156478473
  H   -2.958967056   0.773769018  -0.596148249
  H   -4.036190703   1.846585112  -0.004175487
  H   -2.438644461   2.164341226   0.074217649
  C    0.733874845  -1.461589665  -0.452754710
  C    1.180514724  -0.150890007   0.229417114
  C    0.389533786   0.085731608   1.522431333
  C    2.669992826  -0.280426115   0.573145301
  C    0.994356720   1.043112895  -0.715377397
  C   -0.724364419  -1.533250598  -0.900821307
  H    0.931761084  -2.284620567   0.238784102
  H    1.379801592  -1.631683537  -1.318348534
  H   -0.672603971   0.233506399   1.335382527
  H    0.498227659  -0.760394004   2.202885228
  H    0.759170119   0.973715174   2.037442824
  H    3.267947118  -0.443369641  -0.324790673
  H    2.843037282  -1.120039689   1.247752392
  H    3.037903926   0.622541288   1.061981073
  H    1.540187747   0.893999795  -1.648442065
  H   -0.053856912   1.202530883  -0.964309823
  H    1.366421077   1.958583088  -0.253798713
  H   -1.411022418  -1.391025670  -0.067712772
  H   -0.949418360  -0.781150156  -1.657362525
  H   -0.939438792  -2.506621213  -1.341304596
