27
charge=0 charge_a=0 charge_b=0 selection_a=1-9 selection_b=10-27 scaling=0.95 benchmark_Eint=-5.376 benchmark_unit=kcal/mol group=HBCNO
  N    0.753849391   1.127590793  -1.951456939
  C    1.641796132   0.274809412  -1.447372494
  N    1.469708639  -1.037297429  -1.319455733
  C    0.284101120  -1.479037635  -1.730737474
  N   -0.685767749  -0.726499179  -2.243116382
  C   -0.392932254   0.568730158  -2.327870118
  H    2.587640926   0.684500331  -1.114626736
  H    0.094037632  -2.541209216  -1.642756035
  H   -1.151129521   1.222931449  -2.738917736
  C    1.037567087  -1.418846637   2.056454307
  C   -0.140895553  -2.061597753   1.625301100
  C   -1.162609505  -1.334933000   1.073582494
  C   -1.056859662   0.067635750   0.926369471
  C   -2.085278012   0.844520464   0.344887760
  C   -1.945131000   2.199777438   0.202265815
  C   -0.767449178   2.843277285   0.635012899
  C    0.246166900   2.119197326   1.202845260
  C    0.134937735   0.718514320   1.363983463
  C    1.170004299  -0.062041753   1.929986654
  H    1.839867821  -2.004475847   2.481500446
  H   -0.232015938  -3.133564854   1.728319499
  H   -2.064716878  -1.825597777   0.734386779
  H   -2.982889557   0.346621148   0.004745210
  H   -2.737267689   2.781999605  -0.246847229
  H   -0.665598003   3.911511705   0.509039461
  H    1.153025751   2.610073319   1.529241147
  H    2.074767388   0.432489683   2.257045996
