14
charge=0 charge_a=0 charge_b=0 selection_a=1-7 selection_b=8-14 scaling=1.05 benchmark_Eint=-3.158 benchmark_unit=kcal/mol group=HBCNO
  N    2.000058254   0.075981207  -1.559358287
  N    0.880660110   0.019920665  -1.699707099
  N   -0.309830718  -0.167488431  -1.912104471
  C   -1.225483767   0.893980662  -1.462006826
  H   -2.223249318   0.587625189  -1.755699062
  H   -0.991875059   1.846703380  -1.940070047
  H   -1.186346688   1.006362680  -0.378917578
  C    0.035343591   0.332484014   2.218248272
  C    0.241051126  -0.736238857   1.716209170
  C    0.495431156  -2.029214959   1.103363809
  H   -0.137520395   1.273756042   2.675173522
  H    1.529187331  -2.096491768   0.764902120
  H   -0.152618508  -2.181389636   0.240454993
  H    0.316420618  -2.836876573   1.812818860
