26
charge=0 charge_a=0 charge_b=0 selection_a=1-8 selection_b=9-26 scaling=1.00 benchmark_Eint=-2.427 benchmark_unit=kcal/mol group=HBCNO
  N   -1.963106368  -0.349289630   2.018504089
  C   -0.922855742   0.395218879   2.435191945
  N   -0.977998368   1.585608447   1.876432771
  C   -2.097592571   1.512253768   1.105760906
  N   -2.730627481   0.356165720   1.157519954
  H   -2.203253819  -1.297693182   2.246292013
  H   -0.173790331   0.040534784   3.121419356
  H   -2.449109308   2.324777446   0.494625602
  C    2.810617634  -0.288840132  -2.479593016
  C    2.462062078   0.752820502  -1.414203424
  C    0.957895292   0.791803915  -1.137371010
  C    0.423212890  -0.592187462  -0.764573998
  C    0.771431136  -1.634751384  -1.829017422
  C    2.276316956  -1.672791671  -2.103933316
  H    3.890588495  -0.329320290  -2.631992347
  H    2.371991448   0.015975348  -3.434768349
  H    2.815907750   1.739029454  -1.719247889
  H    2.989337609   0.506710977  -0.487102315
  H    0.437736855   1.143766276  -2.033852174
  H    0.734754287   1.504547247  -0.343975104
  H   -0.655946709  -0.550555477  -0.614215421
  H    0.863511567  -0.896836549   0.190370017
  H    0.244460224  -1.387859082  -2.755715118
  H    0.417593016  -2.621673496  -1.524668594
  H    2.499076923  -2.392065733  -2.894009676
  H    2.795171551  -2.024606168  -1.206621676
