25
charge=0 charge_a=0 charge_b=0 selection_a=1-5 selection_b=6-25 scaling=0.90 benchmark_Eint=-2.504 benchmark_unit=kcal/mol group=HBCNO
  N    0.547040352  -0.708507133  -1.638006976
  N   -0.372156967  -0.059171818  -1.524013442
  C   -1.420592406   0.680426594  -1.390188729
  H   -2.005437976   0.887452174  -2.267936954
  H   -1.652598748   1.049736421  -0.408411019
  C   -1.941890543   2.014363838   2.446763731
  C   -1.611143232   0.538970359   2.239971914
  C   -0.140583496   0.294436964   1.910459570
  C    0.188470044  -1.169719061   1.635943839
  C    1.661916416  -1.414497195   1.321675459
  C    1.966203159  -2.872812018   0.993303518
  H   -2.995764354   2.160943899   2.682460908
  H   -1.716861545   2.598294891   1.552314573
  H   -1.356136766   2.435981895   3.264723952
  H   -2.233432096   0.130153049   1.439089907
  H   -1.875225876  -0.025387067   3.137726332
  H    0.477594653   0.657762684   2.736655945
  H    0.143871403   0.898456577   1.042929640
  H   -0.421650565  -1.528472971   0.801904853
  H   -0.101837463  -1.773874594   2.500710481
  H    2.267836779  -1.092639682   2.172875450
  H    1.959869153  -0.784744191   0.480172291
  H    1.694028126  -3.527910264   1.822522674
  H    3.025269845  -3.022892424   0.784618847
  H    1.405973061  -3.196999342   0.115620126
