15
charge=0 charge_a=0 charge_b=0 selection_a=1-5 selection_b=6-15 scaling=1.50 benchmark_Eint=-0.780 benchmark_unit=kcal/mol group=HBCNO
  N    0.946137152   0.549519399  -1.533798536
  N   -0.184872216   0.569206171  -1.536617340
  C   -1.473588468   0.581474418  -1.524250996
  H   -1.965024387  -0.052325845  -0.808401732
  H   -1.978713232   1.225974707  -2.220435327
  C    0.677534097   0.670518477   3.368709788
  C   -0.289940244  -0.246343837   3.371737638
  C   -0.153051995  -1.570798042   2.793999310
  C   -1.128634912  -2.479699641   2.759961085
  H    0.532478122   1.648229691   3.803782887
  H    1.640714248   0.470336720   2.918967760
  H   -1.249677453  -0.011464834   3.819628151
  H    0.812298335  -1.808257092   2.360208278
  H   -2.102582114  -2.275610347   3.186377953
  H   -0.983265733  -3.452169812   2.313494162
