15
charge=0 charge_a=0 charge_b=0 selection_a=1-7 selection_b=8-15 scaling=2.00 benchmark_Eint=-0.259 benchmark_unit=kcal/mol group=HBCNO
  C    0.626776270  -0.147446470  -1.986559095
  N   -0.726659949  -0.488273757  -1.570159463
  H    1.332979867  -0.003227961  -1.157521744
  H    0.604766303   0.770873767  -2.572109237
  H    1.017891264  -0.937099956  -2.626939787
  H   -1.105398602   0.235865167  -0.973734983
  H   -0.723770763  -1.340220132  -1.024415298
  C    0.583568512   0.383964293   4.091859837
  C    1.857509931   0.702285401   3.872406514
  C    2.227548245  -0.824767098   3.803217625
  C    0.953774308  -1.143762348   4.022730099
  H   -0.323013469   0.939786524   4.268746186
  H    2.411357191   1.622843342   3.787263124
  H    3.138930626  -1.379479248   3.651230034
  H    0.405402118  -2.065322481   4.133108457
