15
charge=0 charge_a=0 charge_b=0 selection_a=1-5 selection_b=6-15 scaling=1.25 benchmark_Eint=-1.691 benchmark_unit=kcal/mol group=HBCNO
  N    0.946137152   0.549519399  -1.533798536
  N   -0.184872216   0.569206171  -1.536617340
  C   -1.473588468   0.581474418  -1.524250996
  H   -1.965024387  -0.052325845  -0.808401732
  H   -1.978713232   1.225974707  -2.220435327
  C    0.671581343   0.899944437   2.651810126
  C   -0.295892998  -0.016917877   2.654837976
  C   -0.159004749  -1.341372082   2.077099648
  C   -1.134587666  -2.250273681   2.043061423
  H    0.526525368   1.877655651   3.086883225
  H    1.634761494   0.699762680   2.202068098
  H   -1.255630207   0.217961126   3.102728489
  H    0.806345581  -1.578831132   1.643308616
  H   -2.108534868  -2.046184387   2.469478291
  H   -0.989218487  -3.222743852   1.596594500
