24
charge=0 charge_a=0 charge_b=0 selection_a=1-4 selection_b=5-24 scaling=1.25 benchmark_Eint=-1.506 benchmark_unit=kcal/mol group=HBCNO
  N   -1.883226108  -2.356884125   1.028023594
  N   -2.595853021  -1.356387925   0.914119359
  H   -2.387343441  -3.025701652   1.630370919
  H   -2.087930405  -0.690231127   0.312196787
  C    0.460436367   1.132181016  -1.266948971
  C    1.514624040   1.386543989  -0.168299663
  C    2.909420270   0.967000849  -0.648511669
  C    1.524815151   2.888437086   0.143145546
  C    1.159147216   0.617183435   1.110087114
  C    0.358454322  -0.298616002  -1.793860524
  H    0.672859710   1.801397204  -2.104686106
  H   -0.512448078   1.448781807  -0.877295630
  H    2.972783817  -0.107685629  -0.813281541
  H    3.169204793   1.467675409  -1.582620612
  H    3.663970799   1.231531633   0.093049707
  H    0.541364565   3.226469606   0.473220593
  H    1.800467386   3.469663205  -0.737859489
  H    2.239986779   3.118360001   0.933815216
  H    0.185520263   0.927173847   1.493657492
  H    1.127178061  -0.458429147   0.944630748
  H    1.895995872   0.810781642   1.890416223
  H    1.270272717  -0.599607586  -2.307718718
  H    0.176351794  -1.024565621  -1.002056978
  H   -0.458012114  -0.382614790  -2.511422607
