15
charge=0 charge_a=0 charge_b=0 selection_a=1-7 selection_b=8-15 scaling=1.25 benchmark_Eint=-1.914 benchmark_unit=kcal/mol group=HBCNO
  C    0.626776270  -0.147446470  -1.986559095
  N   -0.726659949  -0.488273757  -1.570159463
  H    1.332979867  -0.003227961  -1.157521744
  H    0.604766303   0.770873767  -2.572109237
  H    1.017891264  -0.937099956  -2.626939787
  H   -1.105398602   0.235865167  -0.973734983
  H   -0.723770763  -1.340220132  -1.024415298
  C    0.101190786   0.351462780   2.202877563
  C    1.375132205   0.669783888   1.983424240
  C    1.745170519  -0.857268611   1.914235351
  C    0.471396582  -1.176263861   2.133747825
  H   -0.805391195   0.907285011   2.379763912
  H    1.928979465   1.590341829   1.898280850
  H    2.656552900  -1.411980761   1.762247760
  H   -0.076975608  -2.097823994   2.244126183
