25
charge=0 charge_a=0 charge_b=0 selection_a=1-5 selection_b=6-25 scaling=1.00 benchmark_Eint=-2.811 benchmark_unit=kcal/mol group=HBCNO
  N    0.547040352  -0.708507133  -1.638006976
  N   -0.372156967  -0.059171818  -1.524013442
  C   -1.420592406   0.680426594  -1.390188729
  H   -2.005437976   0.887452174  -2.267936954
  H   -1.652598748   1.049736421  -0.408411019
  C   -1.909739348   1.984744975   2.677644901
  C   -1.578992037   0.509351496   2.470853084
  C   -0.108432301   0.264818101   2.141340740
  C    0.220621239  -1.199337924   1.866825009
  C    1.694067611  -1.444116058   1.552556629
  C    1.998354354  -2.902430881   1.224184688
  H   -2.963613159   2.131325036   2.913342078
  H   -1.684710350   2.568676028   1.783195743
  H   -1.323985571   2.406363032   3.495605122
  H   -2.201280901   0.100534186   1.669971077
  H   -1.843074681  -0.055005930   3.368607502
  H    0.509745848   0.628143821   2.967537115
  H    0.176022598   0.868837714   1.273810810
  H   -0.389499370  -1.558091834   1.032786023
  H   -0.069686268  -1.803493457   2.731591651
  H    2.299987974  -1.122258545   2.403756620
  H    1.992020348  -0.814363054   0.711053461
  H    1.726179321  -3.557529127   2.053403844
  H    3.057421040  -3.052511287   1.015500017
  H    1.438124256  -3.226618205   0.346501296
