18
charge=0 charge_a=0 charge_b=0 selection_a=1-9 selection_b=10-18 scaling=1.50 benchmark_Eint=-0.777 benchmark_unit=kcal/mol group=HBCNO
  N   -1.190764296  -1.398818513  -0.492781360
  C   -0.369588706  -0.456448222  -0.034350522
  N    0.870908024  -0.240224303  -0.469450588
  C    1.269714873  -1.059899387  -1.438145331
  N    0.541059788  -2.035324043  -1.974338184
  C   -0.680632741  -2.155516338  -1.460536243
  H   -0.734679593   0.186338834   0.757082873
  H    2.272733380  -0.921623452  -1.823640303
  H   -1.313276328  -2.936370716  -1.865141744
  C   -1.005376284   3.246221984   3.677160115
  C    0.215129535   3.345282867   3.165693728
  C    0.574046600   4.099317842   1.925899959
  H   -1.199744341   2.680540867   4.577474374
  H   -1.854022322   3.733844137   3.213360282
  H    1.034035744   2.838605885   3.666301103
  H   -0.299229364   4.576009371   1.482077873
  H    1.020547217   3.430486420   1.188074149
  H    1.313487436   4.873413109   2.141863493
