15
charge=0 charge_a=0 charge_b=0 selection_a=1-7 selection_b=8-15 scaling=1.50 benchmark_Eint=-0.937 benchmark_unit=kcal/mol group=HBCNO
  C    0.626776270  -0.147446470  -1.986559095
  N   -0.726659949  -0.488273757  -1.570159463
  H    1.332979867  -0.003227961  -1.157521744
  H    0.604766303   0.770873767  -2.572109237
  H    1.017891264  -0.937099956  -2.626939787
  H   -1.105398602   0.235865167  -0.973734983
  H   -0.723770763  -1.340220132  -1.024415298
  C    0.261983362   0.362296618   2.832538321
  C    1.535924781   0.680617726   2.613084998
  C    1.905963095  -0.846434773   2.543896109
  C    0.632189158  -1.165430023   2.763408583
  H   -0.644598619   0.918118849   3.009424670
  H    2.089772041   1.601175667   2.527941608
  H    2.817345476  -1.401146923   2.391908518
  H    0.083816968  -2.086990156   2.873786941
