20
charge=0 charge_a=0 charge_b=0 selection_a=1-2 selection_b=3-20 scaling=1.10 benchmark_Eint=-0.852 benchmark_unit=kcal/mol group=HBCNO
  N   -0.436558510   0.596732724  -2.995872498
  N   -1.293205702  -0.046130774  -3.197892131
  C   -1.274768331   0.229238151   1.002127983
  C   -1.008558194  -1.206717053   0.545672526
  C    0.487610311  -1.464633164   0.355790004
  C    1.278109102  -1.125190588   1.621446379
  C    1.012157418   0.311276031   2.076978731
  C   -0.484170359   0.568855007   2.267646016
  H   -2.342307967   0.380735724   1.170402831
  H   -0.983368372   0.919379040   0.204870514
  H   -1.550405987  -1.417866198  -0.377477031
  H   -1.398051676  -1.899112171   1.298189810
  H    0.856420575  -0.848333301  -0.469364718
  H    0.658863308  -2.503689359   0.069485627
  H    2.345472112  -1.276948529   1.452455225
  H    0.987487339  -1.813841013   2.420709476
  H    1.401100948   1.003227838   1.323697855
  H    1.552905459   0.521230582   3.001305928
  H   -0.655779228   1.608075382   2.553017430
  H   -0.850845813  -0.046659217   3.094823857
