24
charge=0 charge_a=0 charge_b=0 selection_a=1-4 selection_b=5-24 scaling=2.00 benchmark_Eint=-0.125 benchmark_unit=kcal/mol group=HBCNO
  N   -3.128608539   1.428503974   0.156478473
  H   -2.958967056   0.773769018  -0.596148249
  H   -4.036190703   1.846585112  -0.004175487
  H   -2.438644461   2.164341226   0.074217649
  C    2.781579819  -2.402533944  -0.481161052
  C    3.228219698  -1.091834286   0.201010772
  C    2.437238760  -0.855212671   1.494024991
  C    4.717697800  -1.221370394   0.544738959
  C    3.042061694   0.102168616  -0.743783739
  C    1.323340555  -2.474194877  -0.929227649
  H    2.979466058  -3.225564846   0.210377760
  H    3.427506566  -2.572627816  -1.346754876
  H    1.375101003  -0.707437880   1.306976185
  H    2.545932633  -1.701338283   2.174478886
  H    2.806875093   0.032770895   2.009036482
  H    5.315652092  -1.384313920  -0.353197015
  H    4.890742256  -2.060983968   1.219346050
  H    5.085608900  -0.318402991   1.033574731
  H    3.587892721  -0.046944484  -1.676848407
  H    1.993848062   0.261586604  -0.992716165
  H    3.414126051   1.017638809  -0.282205055
  H    0.636682556  -2.331969949  -0.096119114
  H    1.098286614  -1.722094435  -1.685768867
  H    1.108266182  -3.447565492  -1.369710938
