11
charge=0 charge_a=0 charge_b=0 selection_a=1-5 selection_b=6-11 scaling=1.50 benchmark_Eint=-0.438 benchmark_unit=kcal/mol group=HBCNO
  N    0.502371978  -0.815755775   3.657552124
  N    0.354501451  -0.592406193   2.557788023
  C    0.185772664  -0.337588920   1.304895665
  H    0.524707965  -1.063121183   0.588296632
  H   -0.285911445   0.589059666   1.033162894
  C   -1.298107543   2.510099689  -2.979587485
  C   -0.832266254   1.452262415  -3.314149803
  C   -0.304092710   0.253249360  -3.688615749
  C    0.162783722  -0.806421047  -4.015674567
  H   -1.709641948   3.444523821  -2.691129280
  H    0.573046136  -1.739328607  -4.310731545
