26
charge=0 charge_a=0 charge_b=0 selection_a=1-6 selection_b=7-26 scaling=1.50 benchmark_Eint=-0.728 benchmark_unit=kcal/mol group=HBCNO
  N    1.160095625   2.639206782  -0.553029473
  N    2.116139146   2.234960610  -1.538397399
  H    0.744403233   1.847020151  -0.076999978
  H    0.422118729   3.141807274  -1.025556625
  H    1.912812676   1.313020746  -1.907821862
  H    3.022702098   2.200206232  -1.093995180
  C   -3.034786061  -0.345754030   3.382051512
  C   -2.640228669  -1.520822927   2.492131774
  C   -1.621711039  -1.141840817   1.419912195
  C   -1.217973529  -2.305339477   0.519322980
  C   -0.200047714  -1.922542847  -0.552184932
  C    0.197842669  -3.090805935  -1.449364943
  H   -3.760700386  -0.642816316   4.138564877
  H   -3.478059374   0.459557822   2.794441910
  H   -2.165645572   0.064607733   3.898095630
  H   -3.530958820  -1.931895138   2.010076677
  H   -2.229481554  -2.325614800   3.107184605
  H   -0.729826916  -0.732577350   1.905573254
  H   -2.033659072  -0.334897712   0.805512920
  H   -2.109870151  -2.715787361   0.037022685
  H   -0.807029963  -3.112362661   1.132861550
  H    0.692132829  -1.515199386  -0.067857893
  H   -0.614301668  -1.116036355  -1.164273251
  H    0.640452504  -3.898773917  -0.865403772
  H    0.924782313  -2.789410931  -2.203464492
  H   -0.670389022  -3.497648974  -1.969300012
