18
charge=0 charge_a=0 charge_b=0 selection_a=1-9 selection_b=10-18 scaling=2.00 benchmark_Eint=-0.206 benchmark_unit=kcal/mol group=HBCNO
  N   -1.190764296  -1.398818513  -0.492781360
  C   -0.369588706  -0.456448222  -0.034350522
  N    0.870908024  -0.240224303  -0.469450588
  C    1.269714873  -1.059899387  -1.438145331
  N    0.541059788  -2.035324043  -1.974338184
  C   -0.680632741  -2.155516338  -1.460536243
  H   -0.734679593   0.186338834   0.757082873
  H    2.272733380  -0.921623452  -1.823640303
  H   -1.313276328  -2.936370716  -1.865141744
  C   -1.035234163   4.310153247   4.534065199
  C    0.185271656   4.409214130   4.022598812
  C    0.544188721   5.163249105   2.782805043
  H   -1.229602220   3.744472130   5.434379458
  H   -1.883880201   4.797775400   4.070265366
  H    1.004177865   3.902537148   4.523206187
  H   -0.329087243   5.639940634   2.338982957
  H    0.990689338   4.494417683   2.044979233
  H    1.283629557   5.937344372   2.998768577
