19
charge=0 charge_a=0 charge_b=0 selection_a=1-2 selection_b=3-19 scaling=2.00 benchmark_Eint=-0.028 benchmark_unit=kcal/mol group=HBCNO
  N   -0.569170445  -3.605423279   0.444103416
  N   -1.194600622  -3.299291167   1.282552703
  C    2.370213823   4.608935560  -0.501552742
  C    0.932317603   4.318024353  -0.947427161
  C   -0.026091531   5.289709515  -0.248728647
  C    0.822446165   4.494968580  -2.466475074
  C    0.562943801   2.878448446  -0.573085289
  H    2.660062709   5.629031883  -0.756979281
  H    3.074433324   3.929823651  -0.984051465
  H    2.476664763   4.490760624   0.577633777
  H    0.214788037   6.323925412  -0.498203762
  H    0.031708751   5.184409586   0.835456198
  H   -1.058401875   5.104464390  -0.548628168
  H    1.080544461   5.512942132  -2.761413141
  H   -0.192639724   4.293478050  -2.811316091
  H    1.495236296   3.813872758  -2.989301984
  H    0.632509945   2.723482685   0.504409282
  H    1.229552682   2.163944536  -1.057664272
  H   -0.457484280   2.644095886  -0.879024869
