27
charge=0 charge_a=0 charge_b=0 selection_a=1-9 selection_b=10-27 scaling=1.25 benchmark_Eint=-1.717 benchmark_unit=kcal/mol group=HBCNO
  N   -1.781163249  -0.975944016  -1.289656130
  C   -1.650669170   0.344914974  -1.203861815
  N   -0.662397082   1.059480777  -1.735349117
  C    0.242589074   0.343230591  -2.397253339
  N    0.221644351  -0.978275880  -2.548415410
  C   -0.813742428  -1.583119811  -1.971659444
  H   -2.409731305   0.883768733  -0.650484945
  H    1.067252183   0.881289949  -2.848638827
  H   -0.873330455  -2.660601744  -2.064364125
  C    0.033603341   1.350681667   2.741737895
  C   -0.088744129  -0.174732350   2.721637024
  C    1.107673744  -0.822148635   2.021662815
  C    2.430895726  -0.376764640   2.647320281
  C    2.551814022   1.148618419   2.664222091
  C    1.357090967   1.795990090   3.368035377
  H   -0.806928812   1.789675533   3.282147708
  H   -0.017713418   1.731715241   1.718092885
  H   -1.017514408  -0.478962311   2.237369080
  H   -0.140946237  -0.542516685   3.750839275
  H    1.105803946  -0.537543993   0.966387474
  H    1.019936193  -1.909419490   2.049758426
  H    3.271053930  -0.817460517   2.108118880
  H    2.486492103  -0.752167726   3.673619591
  H    2.600646725   1.515258338   1.634294035
  H    3.483557840   1.448932482   3.146356959
  H    1.443070906   2.883290126   3.335407288
  H    1.367868597   1.512957288   4.425058816
