14
charge=0 charge_a=0 charge_b=0 selection_a=1-7 selection_b=8-14 scaling=0.85 benchmark_Eint=-1.640 benchmark_unit=kcal/mol group=HBCNO
  N    2.000058254   0.075981207  -1.559358287
  N    0.880660110   0.019920665  -1.699707099
  N   -0.309830718  -0.167488431  -1.912104471
  C   -1.225483767   0.893980662  -1.462006826
  H   -2.223249318   0.587625189  -1.755699062
  H   -0.991875059   1.846703380  -1.940070047
  H   -1.186346688   1.006362680  -0.378917578
  C    0.039380476   0.512145613   1.683390639
  C    0.245088011  -0.556577258   1.181351537
  C    0.499468041  -1.849553360   0.568506176
  H   -0.133483510   1.453417641   2.140315889
  H    1.533224216  -1.916830169   0.230044487
  H   -0.148581623  -2.001728037  -0.294402640
  H    0.320457503  -2.657214974   1.277961227
