19
charge=0 charge_a=0 charge_b=0 selection_a=1-2 selection_b=3-19 scaling=0.80 benchmark_Eint=1.345 benchmark_unit=kcal/mol group=HBCNO
  N   -0.569170445  -3.605423279   0.444103416
  N   -1.194600622  -3.299291167   1.282552703
  C    1.539524448   1.051096414   0.327554713
  C    0.101628228   0.760185207  -0.118319706
  C   -0.856780906   1.731870369   0.580378808
  C   -0.008243210   0.937129434  -1.637367619
  C   -0.267745574  -0.679390700   0.256022166
  H    1.829373334   2.071192737   0.072128174
  H    2.243743949   0.371984505  -0.154944010
  H    1.645975388   0.932921478   1.406741232
  H   -0.615901338   2.766086266   0.330903693
  H   -0.798980624   1.626570440   1.664563653
  H   -1.889091250   1.546625244   0.280479287
  H    0.249855086   1.955102986  -1.932305686
  H   -1.023329099   0.735638904  -1.982208636
  H    0.664546921   0.256033612  -2.160194529
  H   -0.198179430  -0.834356461   1.333516737
  H    0.398863307  -1.393894610  -0.228556817
  H   -1.288173655  -0.913743260  -0.049917414
