16
charge=0 charge_a=0 charge_b=0 selection_a=1-4 selection_b=5-16 scaling=0.90 benchmark_Eint=-4.599 benchmark_unit=kcal/mol group=HBCNO
  N    1.933423035  -0.047291558  -1.821139493
  N    0.821505038   0.054918082  -1.677592249
  N   -0.400556129   0.190382231  -1.677968579
  H   -0.771207802   0.093179899  -0.733499488
  C   -1.586073751   0.285716828   1.450520548
  C   -0.454967226   1.085810502   1.580032486
  C    0.811234458   0.516150975   1.509520337
  C    0.947799856  -0.853151872   1.308919367
  C   -0.181528945  -1.652836417   1.177604366
  C   -1.449103677  -1.083874905   1.248820842
  H   -2.570413909   0.728567382   1.503750900
  H   -0.561202151   2.150483546   1.731154710
  H    1.689933339   1.137849313   1.604043646
  H    1.932393877  -1.293490657   1.245413234
  H   -0.075168841  -2.715860760   1.015480709
  H   -2.327060379  -1.705122759   1.144000098
