27
charge=0 charge_a=0 charge_b=0 selection_a=1-9 selection_b=10-27 scaling=0.80 benchmark_Eint=1.226 benchmark_unit=kcal/mol group=HBCNO
  N   -1.781163249  -0.975944016  -1.289656130
  C   -1.650669170   0.344914974  -1.203861815
  N   -0.662397082   1.059480777  -1.735349117
  C    0.242589074   0.343230591  -2.397253339
  N    0.221644351  -0.978275880  -2.548415410
  C   -0.813742428  -1.583119811  -1.971659444
  H   -2.409731305   0.883768733  -0.650484945
  H    1.067252183   0.881289949  -2.848638827
  H   -0.873330455  -2.660601744  -2.064364125
  C   -0.466295537   1.151699065   1.588325272
  C   -0.588643007  -0.373714952   1.568224401
  C    0.607774866  -1.021131237   0.868250192
  C    1.930996848  -0.575747242   1.493907658
  C    2.051915144   0.949635817   1.510809468
  C    0.857192089   1.597007488   2.214622754
  H   -1.306827690   1.590692931   2.128735085
  H   -0.517612296   1.532732639   0.564680262
  H   -1.517413286  -0.677944913   1.083956457
  H   -0.640845115  -0.741499287   2.597426652
  H    0.605905068  -0.736526595  -0.187025149
  H    0.520037315  -2.108402092   0.896345803
  H    2.771155052  -1.016443119   0.954706257
  H    1.986593225  -0.951150328   2.520206968
  H    2.100747847   1.316275736   0.480881412
  H    2.983658962   1.249949880   1.992944336
  H    0.943172028   2.684307524   2.181994665
  H    0.867969719   1.313974686   3.271646193
