18
charge=0 charge_a=0 charge_b=0 selection_a=1-8 selection_b=9-18 scaling=0.95 benchmark_Eint=-3.812 benchmark_unit=kcal/mol group=HBCNO
  N   -1.397530931   0.455407810  -0.891722077
  C   -0.442642770   1.397406615  -0.810395663
  N    0.485452065   1.166701917  -1.716524835
  C    0.037716774   0.039451043  -2.334830533
  N   -1.100618078  -0.434481077  -1.864806152
  H   -2.203327382   0.313884551  -0.308884477
  H   -0.455167090   2.196876544  -0.091180663
  H    0.560026916  -0.438420414  -3.145008826
  C    1.942272437   0.807592537   1.586512469
  C    1.087444180  -0.106990568   2.047485618
  C    0.419402878  -1.087979250   1.211743642
  C   -0.466522551  -1.977942971   1.661058291
  H    2.419213233   1.517202266   2.246824168
  H    2.184954503   0.871503133   0.534135639
  H    0.858351435  -0.140148740   3.107686329
  H    0.671524328  -1.075974731   0.157640178
  H   -0.737811407  -2.024399109   2.708040063
  H   -0.939290070  -2.687058622   0.997577560
