26
charge=0 charge_a=0 charge_b=0 selection_a=1-9 selection_b=10-26 scaling=1.10 benchmark_Eint=-2.274 benchmark_unit=kcal/mol group=HBCNO
  N   -0.281844363   0.797767703  -1.998576560
  C   -0.247776839   1.780023009  -1.101627452
  N    0.842849113   2.222524568  -0.482523849
  C    1.964554435   1.593267597  -0.823010599
  N    2.057052396   0.601541840  -1.704714133
  C    0.900901244   0.248533491  -2.260479044
  H   -1.187740075   2.256222753  -0.852613085
  H    2.879543882   1.914776280  -0.340640033
  H    0.924547915  -0.555863527  -2.985654365
  C    0.303322432  -1.088047157   1.664544105
  C   -1.122200526  -1.411425287   2.127038921
  C   -1.467723642  -2.854801500   1.742982308
  C   -1.213059940  -1.249322990   3.648751602
  C   -2.110614525  -0.453555269   1.451174138
  H    1.028374167  -1.749477842   2.140264431
  H    0.571432000  -0.061001765   1.913226269
  H    0.401043314  -1.211335273   0.585863782
  H   -0.777945927  -3.559571502   2.209273778
  H   -1.411742731  -2.995269483   0.662688281
  H   -2.478099291  -3.113720337   2.062268063
  H   -0.519668873  -1.921530744   4.155937951
  H   -2.218918534  -1.473204169   4.006457794
  H   -0.970116964  -0.228958619   3.948362451
  H   -2.072736451  -0.551991084   0.366050526
  H   -1.882955706   0.582770132   1.705450240
  H   -3.133002225  -0.658836210   1.771053216
