27
charge=0 charge_a=0 charge_b=0 selection_a=1-9 selection_b=10-27 scaling=1.25 benchmark_Eint=-3.114 benchmark_unit=kcal/mol group=HBCNO
  N    0.753849391   1.127590793  -1.951456939
  C    1.641796132   0.274809412  -1.447372494
  N    1.469708639  -1.037297429  -1.319455733
  C    0.284101120  -1.479037635  -1.730737474
  N   -0.685767749  -0.726499179  -2.243116382
  C   -0.392932254   0.568730158  -2.327870118
  H    2.587640926   0.684500331  -1.114626736
  H    0.094037632  -2.541209216  -1.642756035
  H   -1.151129521   1.222931449  -2.738917736
  C    0.734470405  -1.230001827   2.986611350
  C   -0.443992235  -1.872752943   2.555458143
  C   -1.465706187  -1.146088190   2.003739537
  C   -1.359956344   0.256480560   1.856526514
  C   -2.388374694   1.033365274   1.275044803
  C   -2.248227682   2.388622248   1.132422858
  C   -1.070545860   3.032122095   1.565169942
  C   -0.056929782   2.308042136   2.133002303
  C   -0.168158947   0.907359130   2.294140506
  C    0.866907617   0.126803057   2.860143697
  H    1.536771139  -1.815631037   3.411657489
  H   -0.535112620  -2.944720044   2.658476542
  H   -2.367813560  -1.636752967   1.664543822
  H   -3.285986239   0.535465958   0.934902253
  H   -3.040364371   2.970844415   0.683309814
  H   -0.968694685   4.100356515   1.439196504
  H    0.849929069   2.798918129   2.459398190
  H    1.771670706   0.621334493   3.187203039
