22
charge=0 charge_a=0 charge_b=0 selection_a=1-4 selection_b=5-22 scaling=1.05 benchmark_Eint=-1.226 benchmark_unit=kcal/mol group=HBCNO
  N   -3.308112686  -2.152973365  -0.131227576
  H   -3.053058234  -1.298891675   0.347866229
  H   -3.354440586  -1.936239131  -1.118809245
  H   -4.243643385  -2.399164042   0.166287745
  C    0.087154459  -0.599936126  -0.739158993
  C    1.439328501  -0.902175178  -0.089744070
  C    2.287512293   0.362799551   0.057458370
  C    1.534893596   1.454132111   0.821787674
  C    0.183507818   1.760176847   0.172430214
  C   -0.663420549   0.494291881   0.023550677
  H   -0.516910591  -1.506067259  -0.789193720
  H    0.250853729  -0.268055983  -1.769235712
  H    1.976827338  -1.653004508  -0.671094458
  H    1.269798322  -1.337809642   0.899578607
  H    2.547584482   0.737640493  -0.937321460
  H    3.228896579   0.131428895   0.558648305
  H    2.139239192   2.360880998   0.881110701
  H    1.369962767   1.121187496   1.851126857
  H    0.352322900   2.194888043  -0.817518635
  H   -0.354911956   2.510321264   0.754226223
  H   -1.603839805   0.730354921  -0.478986531
  H   -0.922089282   0.120354548   1.019591344
