14
charge=0 charge_a=0 charge_b=0 selection_a=1-2 selection_b=3-14 scaling=0.95 benchmark_Eint=-1.312 benchmark_unit=kcal/mol group=HBCNO
  N    1.225877824   0.359486318  -2.016629033
  N    0.366100671   0.981899443  -2.264605166
  C   -1.789994615   0.352160070   0.149117434
  C   -0.953143725   1.252746370   0.797935398
  C    0.277236446   0.830015289   1.286458565
  C    0.671807645  -0.492786560   1.124521390
  C   -0.165759398  -1.393752417   0.477169295
  C   -1.396979783  -0.971477861  -0.009625038
  H   -2.745176399   0.682144745  -0.234116173
  H   -1.258320826   2.282490016   0.919351764
  H    0.929220876   1.530763753   1.788698505
  H    1.630907678  -0.820591722   1.499751911
  H    0.142348635  -2.421886129   0.349772535
  H   -2.047248298  -1.671304125  -0.515361339
