18
charge=0 charge_a=0 charge_b=0 selection_a=1-8 selection_b=9-18 scaling=2.00 benchmark_Eint=-0.367 benchmark_unit=kcal/mol group=HBCNO
  N   -1.397530931   0.455407810  -0.891722077
  C   -0.442642770   1.397406615  -0.810395663
  N    0.485452065   1.166701917  -1.716524835
  C    0.037716774   0.039451043  -2.334830533
  N   -1.100618078  -0.434481077  -1.864806152
  H   -2.203327382   0.313884551  -0.308884477
  H   -0.455167090   2.196876544  -0.091180663
  H    0.560026916  -0.438420414  -3.145008826
  C    3.014673534  -0.143063153   4.264097749
  C    2.159845277  -1.057646258   4.725070898
  C    1.491803975  -2.038634940   3.889328922
  C    0.605878546  -2.928598661   4.338643571
  H    3.491614330   0.566546576   4.924409448
  H    3.257355600  -0.079152557   3.211720919
  H    1.930752532  -1.090804430   5.785271609
  H    1.743925425  -2.026630421   2.835225458
  H    0.334589690  -2.975054799   5.385625343
  H    0.133111027  -3.637714312   3.675162840
