26
charge=0 charge_a=0 charge_b=0 selection_a=1-9 selection_b=10-26 scaling=0.95 benchmark_Eint=-2.501 benchmark_unit=kcal/mol group=HBCNO
  N   -0.281844363   0.797767703  -1.998576560
  C   -0.247776839   1.780023009  -1.101627452
  N    0.842849113   2.222524568  -0.482523849
  C    1.964554435   1.593267597  -0.823010599
  N    2.057052396   0.601541840  -1.704714133
  C    0.900901244   0.248533491  -2.260479044
  H   -1.187740075   2.256222753  -0.852613085
  H    2.879543882   1.914776280  -0.340640033
  H    0.924547915  -0.555863527  -2.985654365
  C    0.480586838  -0.855325159   1.351542264
  C   -0.944936120  -1.178703289   1.814037080
  C   -1.290459236  -2.622079502   1.429980467
  C   -1.035795534  -1.016600992   3.335749761
  C   -1.933350119  -0.220833271   1.138172297
  H    1.205638573  -1.516755844   1.827262590
  H    0.748696406   0.171720233   1.600224428
  H    0.578307720  -0.978613275   0.272861941
  H   -0.600681521  -3.326849504   1.896271937
  H   -1.234478325  -2.762547485   0.349686440
  H   -2.300834885  -2.880998339   1.749266222
  H   -0.342404467  -1.688808746   3.842936110
  H   -2.041654128  -1.240482171   3.693455953
  H   -0.792852558   0.003763379   3.635360610
  H   -1.895472045  -0.319269086   0.053048685
  H   -1.705691300   0.815492130   1.392448399
  H   -2.955737819  -0.426114212   1.458051375
