27
charge=0 charge_a=0 charge_b=0 selection_a=1-9 selection_b=10-27 scaling=1.10 benchmark_Eint=-4.989 benchmark_unit=kcal/mol group=HBCNO
  N    0.753849391   1.127590793  -1.951456939
  C    1.641796132   0.274809412  -1.447372494
  N    1.469708639  -1.037297429  -1.319455733
  C    0.284101120  -1.479037635  -1.730737474
  N   -0.685767749  -0.726499179  -2.243116382
  C   -0.392932254   0.568730158  -2.327870118
  H    2.587640926   0.684500331  -1.114626736
  H    0.094037632  -2.541209216  -1.642756035
  H   -1.151129521   1.222931449  -2.738917736
  C    0.886018746  -1.324424232   2.521532829
  C   -0.292443894  -1.967175348   2.090379622
  C   -1.314157846  -1.240510595   1.538661016
  C   -1.208408003   0.162058155   1.391447993
  C   -2.236826353   0.938942869   0.809966282
  C   -2.096679341   2.294199843   0.667344337
  C   -0.918997519   2.937699690   1.100091421
  C    0.094618559   2.213619731   1.667923782
  C   -0.016610606   0.812936725   1.829061985
  C    1.018455958   0.032380652   2.395065176
  H    1.688319480  -1.910053442   2.946578968
  H   -0.383564279  -3.039142449   2.193398021
  H   -2.216265219  -1.731175372   1.199465301
  H   -3.134437898   0.441043553   0.469823732
  H   -2.888816030   2.876422010   0.218231293
  H   -0.817146344   4.005934110   0.974117983
  H    1.001477410   2.704495724   1.994319669
  H    1.923219047   0.526912088   2.722124518
