15
charge=0 charge_a=0 charge_b=0 selection_a=1-9 selection_b=10-15 scaling=1.25 benchmark_Eint=-1.575 benchmark_unit=kcal/mol group=HBCNO
  N    0.418718593  -0.078228714  -1.721915464
  C    0.354995833   1.072026460  -1.056781855
  N    1.063122651   1.377709985   0.027043975
  C    1.876746849   0.412679943   0.444087327
  N    2.021647379  -0.779081190  -0.129872535
  C    1.267201801  -0.964483419  -1.210212499
  H   -0.332601231   1.821587621  -1.427410121
  H    2.471196299   0.613056383   1.327224468
  H    1.350300738  -1.919419889  -1.714841310
  C   -1.480405451  -1.727506460   1.949906955
  C   -2.269467086  -0.905955149   1.562875251
  C   -3.153979180   0.029503593   1.117093329
  C   -3.929370290   0.858821394   0.718796394
  H   -0.774406077  -2.446054552   2.282495543
  H   -4.616432502   1.588219239   0.370598954
