14
charge=0 charge_a=0 charge_b=0 selection_a=1-7 selection_b=8-14 scaling=1.50 benchmark_Eint=-0.964 benchmark_unit=kcal/mol group=HBCNO
  N    2.000058254   0.075981207  -1.559358287
  N    0.880660110   0.019920665  -1.699707099
  N   -0.309830718  -0.167488431  -1.912104471
  C   -1.225483767   0.893980662  -1.462006826
  H   -2.223249318   0.587625189  -1.755699062
  H   -0.991875059   1.846703380  -1.940070047
  H   -1.186346688   1.006362680  -0.378917578
  C    0.026260597  -0.071754584   3.421677947
  C    0.231968132  -1.140477455   2.919638845
  C    0.486348162  -2.433453557   2.306793484
  H   -0.146603389   0.869517444   3.878603197
  H    1.520104337  -2.500730366   1.968331795
  H   -0.161701502  -2.585628234   1.443884668
  H    0.307337624  -3.241115171   3.016248535
