26
charge=0 charge_a=0 charge_b=0 selection_a=1-8 selection_b=9-26 scaling=0.90 benchmark_Eint=-1.939 benchmark_unit=kcal/mol group=HBCNO
  N   -1.963106368  -0.349289630   2.018504089
  C   -0.922855742   0.395218879   2.435191945
  N   -0.977998368   1.585608447   1.876432771
  C   -2.097592571   1.512253768   1.105760906
  N   -2.730627481   0.356165720   1.157519954
  H   -2.203253819  -1.297693182   2.246292013
  H   -0.173790331   0.040534784   3.121419356
  H   -2.449109308   2.324777446   0.494625602
  C    2.617024746  -0.224883996  -2.286890023
  C    2.268469190   0.816776638  -1.221500431
  C    0.764302404   0.855760051  -0.944668017
  C    0.229620002  -0.528231326  -0.571871005
  C    0.577838248  -1.570795248  -1.636314429
  C    2.082724068  -1.608835535  -1.911230323
  H    3.696995607  -0.265364154  -2.439289354
  H    2.178398560   0.079931484  -3.242065356
  H    2.622314862   1.802985590  -1.526544896
  H    2.795744721   0.570667113  -0.294399322
  H    0.244143967   1.207722412  -1.841149181
  H    0.541161399   1.568503383  -0.151272111
  H   -0.849539597  -0.486599341  -0.421512428
  H    0.669918679  -0.832880413   0.383073010
  H    0.050867336  -1.323902946  -2.563012125
  H    0.224000128  -2.557717360  -1.331965601
  H    2.305484035  -2.328109597  -2.701306683
  H    2.601578663  -1.960650032  -1.013918683
