26
charge=0 charge_a=0 charge_b=0 selection_a=1-8 selection_b=9-26 scaling=1.25 benchmark_Eint=-1.377 benchmark_unit=kcal/mol group=HBCNO
  N   -1.963106368  -0.349289630   2.018504089
  C   -0.922855742   0.395218879   2.435191945
  N   -0.977998368   1.585608447   1.876432771
  C   -2.097592571   1.512253768   1.105760906
  N   -2.730627481   0.356165720   1.157519954
  H   -2.203253819  -1.297693182   2.246292013
  H   -0.173790331   0.040534784   3.121419356
  H   -2.449109308   2.324777446   0.494625602
  C    3.294599854  -0.448730471  -2.961350498
  C    2.946044298   0.592930163  -1.895960906
  C    1.441877512   0.631913576  -1.619128492
  C    0.907195110  -0.752077801  -1.246331480
  C    1.255413356  -1.794641723  -2.310774904
  C    2.760299176  -1.832682010  -2.585690798
  H    4.374570715  -0.489210629  -3.113749829
  H    2.855973668  -0.143914991  -3.916525831
  H    3.299889970   1.579139115  -2.201005371
  H    3.473319829   0.346820638  -0.968859797
  H    0.921719075   0.983875937  -2.515609656
  H    1.218736507   1.344656908  -0.825732586
  H   -0.171964489  -0.710445816  -1.095972903
  H    1.347493787  -1.056726888  -0.291387465
  H    0.728442444  -1.547749421  -3.237472600
  H    0.901575236  -2.781563835  -2.006426076
  H    2.983059143  -2.551956072  -3.375767158
  H    3.279153771  -2.184496507  -1.688379158
