27
charge=0 charge_a=0 charge_b=0 selection_a=1-9 selection_b=10-27 scaling=2.00 benchmark_Eint=-0.269 benchmark_unit=kcal/mol group=HBCNO
  N    0.753849391   1.127590793  -1.951456939
  C    1.641796132   0.274809412  -1.447372494
  N    1.469708639  -1.037297429  -1.319455733
  C    0.284101120  -1.479037635  -1.730737474
  N   -0.685767749  -0.726499179  -2.243116382
  C   -0.392932254   0.568730158  -2.327870118
  H    2.587640926   0.684500331  -1.114626736
  H    0.094037632  -2.541209216  -1.642756035
  H   -1.151129521   1.222931449  -2.738917736
  C   -0.023271300  -0.757889803   5.312003959
  C   -1.201733940  -1.400640919   4.880850752
  C   -2.223447892  -0.673976166   4.329132146
  C   -2.117698049   0.728592584   4.181919123
  C   -3.146116399   1.505477298   3.600437412
  C   -3.005969387   2.860734272   3.457815467
  C   -1.828287565   3.504234119   3.890562551
  C   -0.814671487   2.780154160   4.458394912
  C   -0.925900652   1.379471154   4.619533115
  C    0.109165912   0.598915081   5.185536306
  H    0.779029434  -1.343519013   5.737050098
  H   -1.292854325  -2.472608020   4.983869151
  H   -3.125555265  -1.164640943   3.989936431
  H   -4.043727944   1.007577982   3.260294862
  H   -3.798106076   3.442956439   3.008702423
  H   -1.726436390   4.572468539   3.764589113
  H    0.092187364   3.271030153   4.784790799
  H    1.013929001   1.093446517   5.512595648
