11
charge=0 charge_a=0 charge_b=0 selection_a=1-5 selection_b=6-11 scaling=0.95 benchmark_Eint=-1.483 benchmark_unit=kcal/mol group=HBCNO
  N    0.502371978  -0.815755775   3.657552124
  N    0.354501451  -0.592406193   2.557788023
  C    0.185772664  -0.337588920   1.304895665
  H    0.524707965  -1.063121183   0.588296632
  H   -0.285911445   0.589059666   1.033162894
  C   -1.057748955   2.133502024  -1.403402402
  C   -0.591907666   1.075664750  -1.737964720
  C   -0.063734122  -0.123348305  -2.112430666
  C    0.403142310  -1.183018712  -2.439489484
  H   -1.469283360   3.067926156  -1.114944197
  H    0.813404724  -2.115926272  -2.734546462
