22
charge=0 charge_a=0 charge_b=0 selection_a=1-4 selection_b=5-22 scaling=0.80 benchmark_Eint=0.992 benchmark_unit=kcal/mol group=HBCNO
  N    1.649726777   2.534343460   0.043883036
  H    1.371943141   2.002826712  -0.771653602
  H    2.661488022   2.554848948   0.057654460
  H    1.349671385   2.000037400   0.849681080
  C    0.627502568  -0.329330514  -2.412997726
  C   -0.399634260   0.638541095  -2.413771366
  C   -0.911374658   1.104118918  -1.231708481
  C   -0.419579919   0.630330498   0.007191566
  C   -0.906269742   1.112083323   1.245056461
  C   -0.389290108   0.654510268   2.427976153
  C    0.638064177  -0.313209526   2.429178898
  C    1.128138951  -0.802200341   1.247436126
  C    0.620504602  -0.346198935   0.008188867
  C    1.122722986  -0.810503177  -1.230161165
  H    1.022488012  -0.688891434  -3.352505052
  H   -0.779918753   1.012598581  -3.353610427
  H   -1.693553827   1.850838189  -1.229310545
  H   -1.688373225   1.858859895   1.241108205
  H   -0.765544879   1.034803279   3.366933753
  H    1.037254290  -0.666394409   3.369325419
  H    1.917265416  -1.541982103   1.245887925
  H    1.911720210  -1.550427399  -1.227118819
