14
charge=0 charge_a=0 charge_b=0 selection_a=1-7 selection_b=8-14 scaling=0.90 benchmark_Eint=-2.780 benchmark_unit=kcal/mol group=HBCNO
  N    2.000058254   0.075981207  -1.559358287
  N    0.880660110   0.019920665  -1.699707099
  N   -0.309830718  -0.167488431  -1.912104471
  C   -1.225483767   0.893980662  -1.462006826
  H   -2.223249318   0.587625189  -1.755699062
  H   -0.991875059   1.846703380  -1.940070047
  H   -1.186346688   1.006362680  -0.378917578
  C    0.038371255   0.467230214   1.817105047
  C    0.244078790  -0.601492657   1.315065945
  C    0.498458820  -1.894468759   0.702220584
  H   -0.134492731   1.408502242   2.274030297
  H    1.532214995  -1.961745568   0.363758895
  H   -0.149590844  -2.046643436  -0.160688232
  H    0.319448282  -2.702130373   1.411675635
