15
charge=0 charge_a=0 charge_b=0 selection_a=1-4 selection_b=5-15 scaling=1.10 benchmark_Eint=-1.725 benchmark_unit=kcal/mol group=HBCNO
  N    1.703276650   0.571449594  -1.606195245
  N    0.669238483   0.135332681  -1.528044955
  N   -0.449086997  -0.377596723  -1.602435816
  H   -0.914061711  -0.347572044  -0.698072832
  C   -0.863046296   1.766127055   1.758010845
  C   -1.097121994   0.317631873   2.179753135
  C    0.199299052  -0.465415454   2.371781195
  H   -1.802108972   2.300819343   1.619137619
  H   -0.304663575   1.827324368   0.822672158
  H   -0.283544052   2.299004062   2.512611104
  H   -1.730769314  -0.187205430   1.443018731
  H   -1.671833013   0.299459397   3.107808907
  H    0.795189790  -0.486785129   1.458124410
  H    0.005830846  -1.496567083   2.665541208
  H    0.815837948  -0.007488047   3.146016130
