20
charge=0 charge_a=0 charge_b=0 selection_a=1-2 selection_b=3-20 scaling=0.95 benchmark_Eint=-0.849 benchmark_unit=kcal/mol group=HBCNO
  N   -0.436558510   0.596732724  -2.995872498
  N   -1.293205702  -0.046130774  -3.197892131
  C   -1.357127284   0.297963021   0.583165539
  C   -1.090917147  -1.137992183   0.126710082
  C    0.405251358  -1.395908294  -0.063172440
  C    1.195750149  -1.056465718   1.202483935
  C    0.929798465   0.380000901   1.658016287
  C   -0.566529312   0.637579877   1.848683572
  H   -2.424666920   0.449460594   0.751440387
  H   -1.065727325   0.988103910  -0.214091930
  H   -1.632764940  -1.349141328  -0.796439475
  H   -1.480410629  -1.830387301   0.879227366
  H    0.774061622  -0.779608431  -0.888327162
  H    0.576504355  -2.434964489  -0.349476817
  H    2.263113159  -1.208223659   1.033492781
  H    0.905128386  -1.745116143   2.001747032
  H    1.318741995   1.071952708   0.904735411
  H    1.470546506   0.589955452   2.582343484
  H   -0.738138181   1.676800252   2.134054986
  H   -0.933204766   0.022065653   2.675861413
