19
charge=0 charge_a=0 charge_b=0 selection_a=1-2 selection_b=3-19 scaling=1.05 benchmark_Eint=-0.571 benchmark_unit=kcal/mol group=HBCNO
  N   -0.569170445  -3.605423279   0.444103416
  N   -1.194600622  -3.299291167   1.282552703
  C    1.712584734   1.792312903   0.154823993
  C    0.274688514   1.501401696  -0.291050426
  C   -0.683720620   2.473086858   0.407648088
  C    0.164817076   1.678345923  -1.810098339
  C   -0.094685288   0.061825789   0.083291446
  H    2.002433620   2.812409226  -0.100602546
  H    2.416804235   1.113200994  -0.327674730
  H    1.819035674   1.674137967   1.234010512
  H   -0.442841052   3.507302755   0.158172973
  H   -0.625920338   2.367786929   1.491832933
  H   -1.716030964   2.287841733   0.107748567
  H    0.422915372   2.696319475  -2.105036406
  H   -0.850268813   1.476855393  -2.154939356
  H    0.837607207   0.997250101  -2.332925249
  H   -0.025119144  -0.093139972   1.160786017
  H    0.571923593  -0.652678121  -0.401287537
  H   -1.115113369  -0.172526771  -0.222648134
