16
charge=0 charge_a=0 charge_b=0 selection_a=1-4 selection_b=5-16 scaling=0.95 benchmark_Eint=-5.132 benchmark_unit=kcal/mol group=HBCNO
  N    1.933423035  -0.047291558  -1.821139493
  N    0.821505038   0.054918082  -1.677592249
  N   -0.400556129   0.190382231  -1.677968579
  H   -0.771207802   0.093179899  -0.733499488
  C   -1.628279749   0.271862631   1.572386621
  C   -0.497173224   1.071956305   1.701898559
  C    0.769028460   0.502296778   1.631386410
  C    0.905593858  -0.867006069   1.430785440
  C   -0.223734943  -1.666690614   1.299470439
  C   -1.491309675  -1.097729102   1.370686915
  H   -2.612619907   0.714713185   1.625616973
  H   -0.603408149   2.136629349   1.853020783
  H    1.647727341   1.123995116   1.725909719
  H    1.890187879  -1.307344854   1.367279307
  H   -0.117374839  -2.729714957   1.137346782
  H   -2.369266377  -1.718976956   1.265866171
