11
charge=0 charge_a=0 charge_b=0 selection_a=1-5 selection_b=6-11 scaling=1.25 benchmark_Eint=-0.910 benchmark_unit=kcal/mol group=HBCNO
  N    0.502371978  -0.815755775   3.657552124
  N    0.354501451  -0.592406193   2.557788023
  C    0.185772664  -0.337588920   1.304895665
  H    0.524707965  -1.063121183   0.588296632
  H   -0.285911445   0.589059666   1.033162894
  C   -1.188853639   2.338918932  -2.263139720
  C   -0.723012350   1.281081658  -2.597702038
  C   -0.194838806   0.082068603  -2.972167984
  C    0.272037626  -0.977601804  -3.299226802
  H   -1.600388044   3.273343064  -1.974681515
  H    0.682300040  -1.910509364  -3.594283780
