26
charge=0 charge_a=0 charge_b=0 selection_a=1-9 selection_b=10-26 scaling=0.90 benchmark_Eint=-2.133 benchmark_unit=kcal/mol group=HBCNO
  N   -0.340084208  -0.247644085  -2.074231306
  C   -1.378875607   0.404884842  -1.560161112
  N   -1.351880805   1.647178126  -1.084765779
  C   -0.161567632   2.237315740  -1.150555887
  N    0.947906508   1.687761210  -1.637398884
  C    0.796073207   0.444252661  -2.084721502
  H   -2.325268101  -0.119869783  -1.522611373
  H   -0.088773128   3.250247188  -0.773575231
  H    1.672206867  -0.047212232  -2.489975964
  C   -1.679597923  -1.045471989   1.478435104
  C   -0.313479822  -0.939525938   2.157635814
  C    0.222557734  -2.329132129   2.503740939
  C    0.658785169  -0.144725362   1.277736181
  C    2.007859599   0.163008481   1.920801192
  H   -2.396986757  -1.569659639   2.110233973
  H   -1.598794860  -1.599129748   0.540469785
  H   -2.087202691  -0.060024828   1.251407262
  H   -0.443085439  -0.383606443   3.092449767
  H    0.397583407  -2.908743332   1.594551659
  H   -0.491231055  -2.880872416   3.115875830
  H    1.160590677  -2.280601363   3.054428474
  H    0.177649453   0.795234672   1.000864278
  H    0.813666385  -0.696449770   0.346506308
  H    1.878464823   0.692748009   2.866107901
  H    2.614207280   0.791742747   1.269092596
  H    2.577451886  -0.742772490   2.124650849
