27
charge=0 charge_a=0 charge_b=0 selection_a=1-9 selection_b=10-27 scaling=1.50 benchmark_Eint=-1.266 benchmark_unit=kcal/mol group=HBCNO
  N    0.753849391   1.127590793  -1.951456939
  C    1.641796132   0.274809412  -1.447372494
  N    1.469708639  -1.037297429  -1.319455733
  C    0.284101120  -1.479037635  -1.730737474
  N   -0.685767749  -0.726499179  -2.243116382
  C   -0.392932254   0.568730158  -2.327870118
  H    2.587640926   0.684500331  -1.114626736
  H    0.094037632  -2.541209216  -1.642756035
  H   -1.151129521   1.222931449  -2.738917736
  C    0.481889836  -1.072631153   3.761742220
  C   -0.696572804  -1.715382269   3.330589013
  C   -1.718286756  -0.988717516   2.778870407
  C   -1.612536913   0.413851234   2.631657384
  C   -2.640955263   1.190735948   2.050175673
  C   -2.500808251   2.545992922   1.907553728
  C   -1.323126429   3.189492769   2.340300812
  C   -0.309510351   2.465412810   2.908133173
  C   -0.420739516   1.064729804   3.069271376
  C    0.614327048   0.284173731   3.635274567
  H    1.284190570  -1.658260363   4.186788359
  H   -0.787693189  -2.787349370   3.433607412
  H   -2.620394129  -1.479382293   2.439674692
  H   -3.538566808   0.692836632   1.710033123
  H   -3.292944940   3.128215089   1.458440684
  H   -1.221275254   4.257727189   2.214327374
  H    0.597348500   2.956288803   3.234529060
  H    1.519090137   0.778705167   3.962333909
