26
charge=0 charge_a=0 charge_b=0 selection_a=1-6 selection_b=7-26 scaling=1.25 benchmark_Eint=-1.390 benchmark_unit=kcal/mol group=HBCNO
  N    1.160095625   2.639206782  -0.553029473
  N    2.116139146   2.234960610  -1.538397399
  H    0.744403233   1.847020151  -0.076999978
  H    0.422118729   3.141807274  -1.025556625
  H    1.912812676   1.313020746  -1.907821862
  H    3.022702098   2.200206232  -1.093995180
  C   -2.700829033   0.106223189   3.161288527
  C   -2.306271641  -1.068845708   2.271368789
  C   -1.287754011  -0.689863598   1.199149210
  C   -0.884016501  -1.853362258   0.298559995
  C    0.133909314  -1.470565628  -0.772947917
  C    0.531799697  -2.638828716  -1.670127928
  H   -3.426743358  -0.190839097   3.917801892
  H   -3.144102346   0.911535041   2.573678925
  H   -1.831688544   0.516584952   3.677332645
  H   -3.197001792  -1.479917919   1.789313692
  H   -1.895524526  -1.873637581   2.886421620
  H   -0.395869888  -0.280600131   1.684810269
  H   -1.699702044   0.117079507   0.584749935
  H   -1.775913123  -2.263810142  -0.183740300
  H   -0.473072935  -2.660385442   0.912098565
  H    1.026089857  -1.063222167  -0.288620878
  H   -0.280344640  -0.664059136  -1.385036236
  H    0.974409532  -3.446796698  -1.086166757
  H    1.258739341  -2.337433712  -2.424227477
  H   -0.336431994  -3.045671755  -2.190062997
