25
charge=0 charge_a=0 charge_b=0 selection_a=1-5 selection_b=6-25 scaling=1.25 benchmark_Eint=-1.776 benchmark_unit=kcal/mol group=HBCNO
  N    0.547040352  -0.708507133  -1.638006976
  N   -0.372156967  -0.059171818  -1.524013442
  C   -1.420592406   0.680426594  -1.390188729
  H   -2.005437976   0.887452174  -2.267936954
  H   -1.652598748   1.049736421  -0.408411019
  C   -1.829361360   1.910697818   3.254847827
  C   -1.498614049   0.435304339   3.048056010
  C   -0.028054313   0.190770944   2.718543666
  C    0.300999227  -1.273385081   2.444027935
  C    1.774445599  -1.518163215   2.129759555
  C    2.078732342  -2.976478038   1.801387614
  H   -2.883235171   2.057277879   3.490545004
  H   -1.604332362   2.494628871   2.360398669
  H   -1.243607583   2.332315875   4.072808048
  H   -2.120902913   0.026487029   2.247174003
  H   -1.762696693  -0.129053087   3.945810428
  H    0.590123836   0.554096664   3.544740041
  H    0.256400586   0.794790557   1.851013736
  H   -0.309121382  -1.632138991   1.609988949
  H    0.010691720  -1.877540614   3.308794577
  H    2.380365962  -1.196305702   2.980959546
  H    2.072398336  -0.888410211   1.288256387
  H    1.806557309  -3.631576284   2.630606770
  H    3.137799028  -3.126558444   1.592702943
  H    1.518502244  -3.300665362   0.923704222
