11
charge=0 charge_a=0 charge_b=0 selection_a=1-5 selection_b=6-11 scaling=0.85 benchmark_Eint=-0.312 benchmark_unit=kcal/mol group=HBCNO
  N    0.502371978  -0.815755775   3.657552124
  N    0.354501451  -0.592406193   2.557788023
  C    0.185772664  -0.337588920   1.304895665
  H    0.524707965  -1.063121183   0.588296632
  H   -0.285911445   0.589059666   1.033162894
  C   -1.014047394   2.065029721  -1.116823296
  C   -0.548206105   1.007192447  -1.451385614
  C   -0.020032561  -0.191820608  -1.825851560
  C    0.446843871  -1.251491015  -2.152910378
  H   -1.425581799   2.999453853  -0.828365091
  H    0.857106285  -2.184398575  -2.447967356
