25
charge=0 charge_a=0 charge_b=0 selection_a=1-5 selection_b=6-25 scaling=1.10 benchmark_Eint=-2.490 benchmark_unit=kcal/mol group=HBCNO
  N    0.547040352  -0.708507133  -1.638006976
  N   -0.372156967  -0.059171818  -1.524013442
  C   -1.420592406   0.680426594  -1.390188729
  H   -2.005437976   0.887452174  -2.267936954
  H   -1.652598748   1.049736421  -0.408411019
  C   -1.877588153   1.955126112   2.908526071
  C   -1.546840842   0.479732633   2.701734254
  C   -0.076281106   0.235199238   2.372221910
  C    0.252772434  -1.228956787   2.097706179
  C    1.726218806  -1.473734921   1.783437799
  C    2.030505549  -2.932049744   1.455065858
  H   -2.931461964   2.101706173   3.144223248
  H   -1.652559155   2.539057165   2.014076913
  H   -1.291834376   2.376744169   3.726486292
  H   -2.169129706   0.070915323   1.900852247
  H   -1.810923486  -0.084624793   3.599488672
  H    0.541897043   0.598524958   3.198418285
  H    0.208173793   0.839218851   1.504691980
  H   -0.357348175  -1.587710697   1.263667193
  H   -0.037535073  -1.833112320   2.962472821
  H    2.332139169  -1.151877408   2.634637790
  H    2.024171543  -0.843981917   0.941934631
  H    1.758330516  -3.587147990   2.284285014
  H    3.089572235  -3.082130150   1.246381187
  H    1.470275451  -3.256237068   0.577382466
