19
charge=0 charge_a=0 charge_b=0 selection_a=1-2 selection_b=3-19 scaling=1.10 benchmark_Eint=-0.513 benchmark_unit=kcal/mol group=HBCNO
  N   -0.569170445  -3.605423279   0.444103416
  N   -1.194600622  -3.299291167   1.282552703
  C    1.747196792   1.940556201   0.120277849
  C    0.309300572   1.649644994  -0.325596570
  C   -0.649108562   2.621330156   0.373101944
  C    0.199429134   1.826589221  -1.844644483
  C   -0.060073230   0.210069087   0.048745302
  H    2.037045678   2.960652524  -0.135148690
  H    2.451416293   1.261444292  -0.362220874
  H    1.853647732   1.822381265   1.199464368
  H   -0.408228994   3.655546053   0.123626829
  H   -0.591308280   2.516030227   1.457286789
  H   -1.681418906   2.436085031   0.073202423
  H    0.457527430   2.844562773  -2.139582550
  H   -0.815656755   1.625098691  -2.189485500
  H    0.872219265   1.145493399  -2.367471393
  H    0.009492914   0.055103326   1.126239873
  H    0.606535651  -0.504434823  -0.435833681
  H   -1.080501311  -0.024283473  -0.257194278
