26
charge=0 charge_a=0 charge_b=0 selection_a=1-8 selection_b=9-26 scaling=1.05 benchmark_Eint=-2.305 benchmark_unit=kcal/mol group=HBCNO
  N   -1.963106368  -0.349289630   2.018504089
  C   -0.922855742   0.395218879   2.435191945
  N   -0.977998368   1.585608447   1.876432771
  C   -2.097592571   1.512253768   1.105760906
  N   -2.730627481   0.356165720   1.157519954
  H   -2.203253819  -1.297693182   2.246292013
  H   -0.173790331   0.040534784   3.121419356
  H   -2.449109308   2.324777446   0.494625602
  C    2.907414078  -0.320818200  -2.575944512
  C    2.558858522   0.720842434  -1.510554920
  C    1.054691736   0.759825847  -1.233722506
  C    0.520009334  -0.624165530  -0.860925494
  C    0.868227580  -1.666729452  -1.925368918
  C    2.373113400  -1.704769739  -2.200284812
  H    3.987384939  -0.361298358  -2.728343843
  H    2.468787892  -0.016002720  -3.531119845
  H    2.912704194   1.707051386  -1.815599385
  H    3.086134053   0.474732909  -0.583453811
  H    0.534533299   1.111788208  -2.130203670
  H    0.831550731   1.472569179  -0.440326600
  H   -0.559150265  -0.582533545  -0.710566917
  H    0.960308011  -0.928814617   0.094018521
  H    0.341256668  -1.419837150  -2.852066614
  H    0.514389460  -2.653651564  -1.621020090
  H    2.595873367  -2.424043801  -2.990361172
  H    2.891967995  -2.056584236  -1.302973172
