14
charge=0 charge_a=0 charge_b=0 selection_a=1-7 selection_b=8-14 scaling=0.80 benchmark_Eint=0.595 benchmark_unit=kcal/mol group=HBCNO
  N    2.000058254   0.075981207  -1.559358287
  N    0.880660110   0.019920665  -1.699707099
  N   -0.309830718  -0.167488431  -1.912104471
  C   -1.225483767   0.893980662  -1.462006826
  H   -2.223249318   0.587625189  -1.755699062
  H   -0.991875059   1.846703380  -1.940070047
  H   -1.186346688   1.006362680  -0.378917578
  C    0.040389698   0.557061013   1.549676231
  C    0.246097233  -0.511661858   1.047637129
  C    0.500477263  -1.804637960   0.434791768
  H   -0.132474288   1.498333041   2.006601481
  H    1.534233438  -1.871914769   0.096330079
  H   -0.147572401  -1.956812637  -0.428117048
  H    0.321466725  -2.612299574   1.144246819
