15
charge=0 charge_a=0 charge_b=0 selection_a=1-9 selection_b=10-15 scaling=0.80 benchmark_Eint=3.329 benchmark_unit=kcal/mol group=HBCNO
  N    0.418718593  -0.078228714  -1.721915464
  C    0.354995833   1.072026460  -1.056781855
  N    1.063122651   1.377709985   0.027043975
  C    1.876746849   0.412679943   0.444087327
  N    2.021647379  -0.779081190  -0.129872535
  C    1.267201801  -0.964483419  -1.210212499
  H   -0.332601231   1.821587621  -1.427410121
  H    2.471196299   0.613056383   1.327224468
  H    1.350300738  -1.919419889  -1.714841310
  C   -0.167432682  -1.521022054   1.290975888
  C   -0.956494317  -0.699470743   0.903944184
  C   -1.841006411   0.235987999   0.458162262
  C   -2.616397521   1.065305800   0.059865327
  H    0.538566692  -2.239570146   1.623564476
  H   -3.303459733   1.794703645  -0.288332113
