29
charge=0 charge_a=0 charge_b=0 selection_a=1-12 selection_b=13-29 scaling=0.95 benchmark_Eint=-2.578 benchmark_unit=kcal/mol group=HBCNO
  O    0.740763899   0.308232496  -1.881144402
  C   -0.272371594   1.250494693  -2.143850643
  O   -0.755037434   1.828351543  -0.953678620
  C    0.302847884   2.419790637  -0.236363398
  O    1.320044670   1.485537462   0.038961220
  C    1.788673212   0.910066127  -1.157925203
  H   -1.096829683   0.726102061  -2.613905777
  H    0.119948164   2.038973907  -2.803442186
  H   -0.093908597   2.764541755   0.712008434
  H    0.718798052   3.256917899  -0.816754548
  H    2.497046174   0.132455097  -0.894850034
  H    2.266060101   1.684453677  -1.776880308
  C   -2.255578967  -0.743006906   1.015414549
  C   -1.161432947  -1.757020966   1.371394176
  C   -0.042314514  -1.048663568   2.144506240
  C   -1.758250803  -2.871394765   2.238568810
  C   -0.587352143  -2.360733786   0.083781404
  H   -2.684527881  -0.301430925   1.916670746
  H   -3.065423161  -1.222611908   0.462784393
  H   -1.857736162   0.063876529   0.400786500
  H   -0.425212700  -0.608197104   3.066806031
  H    0.402536501  -0.252785191   1.548081903
  H    0.748231956  -1.750921442   2.414876449
  H   -2.174083016  -2.467900372   3.163162262
  H   -0.999485999  -3.608351963   2.506441859
  H   -2.558844833  -3.391952024   1.710702451
  H   -0.157211546  -1.588591869  -0.553320697
  H   -1.364249681  -2.874760447  -0.484944009
  H    0.194541724  -3.087783994   0.310299017
