20
charge=0 charge_a=0 charge_b=0 selection_a=1-10 selection_b=11-20 scaling=0.80 benchmark_Eint=-0.073 benchmark_unit=kcal/mol group=HBCNO
  C    2.193484667  -0.784906671  -0.216497328
  O    1.246481504  -0.429267084  -1.201337892
  O    0.274672555  -1.521675876  -1.209708371
  C   -0.733743225  -1.109973546  -2.107306360
  H    2.921282619   0.024504046  -0.228504263
  H    2.683610274  -1.727359370  -0.466138949
  H    1.732636169  -0.851175813   0.770388931
  H   -1.444619770  -1.934300895  -2.121915735
  H   -0.328242843  -0.953376669  -3.108255154
  H   -1.229003514  -0.202502154  -1.757582292
  C   -1.174426251  -0.883151031   1.435251179
  C   -1.079162437   0.438928451   1.587916771
  C   -0.343209997   1.311879002   0.690790526
  C   -0.251897590   2.633505346   0.846891482
  H   -1.734929165  -1.489946260   2.131656866
  H   -0.693165456  -1.391373593   0.610261580
  H   -1.573593945   0.917448650   2.427184427
  H    0.154269245   0.837477147  -0.147463649
  H   -0.734720126   3.139444138   1.673247858
  H    0.305811480   3.247923240   0.155307679
