20
charge=0 charge_a=0 charge_b=0 selection_a=1-3 selection_b=4-20 scaling=0.95 benchmark_Eint=-1.779 benchmark_unit=kcal/mol group=HBCNO
  O   -1.066721476  -0.638432170  -2.216196274
  C   -1.426009724  -1.375105499  -1.397377519
  O   -1.787723385  -2.114235453  -0.581851541
  C    1.183921938  -0.478227960   0.559689562
  C    0.630155751   0.694092196   1.378934367
  C   -0.827155609   0.957428564   0.980066989
  C    0.695627888   0.348994854   2.871228278
  C    1.468142915   1.948229903   1.104679549
  H    0.607731261  -1.386995014   0.738894355
  H    2.221101133  -0.685152572   0.825952546
  H    1.153202865  -0.257731277  -0.508196343
  H   -1.448622475   0.081031362   1.168896223
  H   -0.903158571   1.210039649  -0.078418218
  H   -1.243828353   1.788603020   1.550153751
  H    0.105939408  -0.541473393   3.092899444
  H    0.308116542   1.167555464   3.479162346
  H    1.722995202   0.157077180   3.183449877
  H    1.437849755   2.215334883   0.047531614
  H    2.511424579   1.789344531   1.380535691
  H    1.096374420   2.799566944   1.676342815
