26
charge=0 charge_a=0 charge_b=0 selection_a=1-9 selection_b=10-26 scaling=1.10 benchmark_Eint=-1.757 benchmark_unit=kcal/mol group=HBCNO
  C   -1.472109373  -2.875758118   0.401128132
  O   -1.175629310  -2.555022098  -0.938756243
  C   -2.128489276  -1.688878030  -1.512737776
  H   -0.684495851  -3.532486514   0.761882251
  H   -2.435715997  -3.391407419   0.484783315
  H   -1.503002510  -1.978179353   1.029349935
  H   -1.815912834  -1.492149201  -2.535203447
  H   -2.184282868  -0.739986470  -0.967895566
  H   -3.125714250  -2.143866339  -1.524168818
  C    1.884393740  -0.670848716   0.069406419
  C    0.891520473   0.485684865   0.015278093
  C    1.437742022   1.782559326   0.605618167
  C    0.444857817   2.941034764   0.556929265
  C    1.000138552   4.232670744   1.150511822
  H    1.459241864  -1.569780579  -0.373005135
  H    2.165357084  -0.897501753   1.099434803
  H    2.799287971  -0.425738845  -0.472513201
  H   -0.020899988   0.207199161   0.548683995
  H    0.591516838   0.659383546  -1.021330456
  H    2.349916938   2.066465566   0.071734265
  H    1.738397537   1.608541888   1.643563883
  H   -0.465942971   2.655293768   1.090276571
  H    0.146249600   3.113722923  -0.480569014
  H    1.276514259   4.095659266   2.197077800
  H    0.272034773   5.042392523   1.102590005
  H    1.893704862   4.557085226   0.615087984
