26
charge=0 charge_a=0 charge_b=0 selection_a=1-9 selection_b=10-26 scaling=0.80 benchmark_Eint=-0.425 benchmark_unit=kcal/mol group=HBCNO
  C   -1.472109373  -2.875758118   0.401128132
  O   -1.175629310  -2.555022098  -0.938756243
  C   -2.128489276  -1.688878030  -1.512737776
  H   -0.684495851  -3.532486514   0.761882251
  H   -2.435715997  -3.391407419   0.484783315
  H   -1.503002510  -1.978179353   1.029349935
  H   -1.815912834  -1.492149201  -2.535203447
  H   -2.184282868  -0.739986470  -0.967895566
  H   -3.125714250  -2.143866339  -1.524168818
  C    1.486170475  -1.269084809  -0.098804961
  C    0.493297208  -0.112551228  -0.152933287
  C    1.039518757   1.184323233   0.437406787
  C    0.046634552   2.342798671   0.388717885
  C    0.601915287   3.634434651   0.982300442
  H    1.061018599  -2.168016672  -0.541216515
  H    1.767133819  -1.495737846   0.931223423
  H    2.401064706  -1.023974938  -0.640724581
  H   -0.419123253  -0.391036932   0.380472615
  H    0.193293573   0.061147453  -1.189541836
  H    1.951693673   1.468229473  -0.096477115
  H    1.340174272   1.010305795   1.475352503
  H   -0.864166236   2.057057675   0.922065191
  H   -0.251973665   2.515486830  -0.648780394
  H    0.878290994   3.497423173   2.028866420
  H   -0.126188492   4.444156430   0.934378625
  H    1.495481597   3.958849133   0.446876604
