26
charge=0 charge_a=0 charge_b=0 selection_a=1-9 selection_b=10-26 scaling=1.50 benchmark_Eint=-0.661 benchmark_unit=kcal/mol group=HBCNO
  C   -1.472109373  -2.875758118   0.401128132
  O   -1.175629310  -2.555022098  -0.938756243
  C   -2.128489276  -1.688878030  -1.512737776
  H   -0.684495851  -3.532486514   0.761882251
  H   -2.435715997  -3.391407419   0.484783315
  H   -1.503002510  -1.978179353   1.029349935
  H   -1.815912834  -1.492149201  -2.535203447
  H   -2.184282868  -0.739986470  -0.967895566
  H   -3.125714250  -2.143866339  -1.524168818
  C    2.415358093   0.126799409   0.293688258
  C    1.422484826   1.283332990   0.239559932
  C    1.968706375   2.580207451   0.829900006
  C    0.975822170   3.738682889   0.781211104
  C    1.531102905   5.030318869   1.374793661
  H    1.990206217  -0.772132454  -0.148723296
  H    2.696321437  -0.099853628   1.323716642
  H    3.330252324   0.371909280  -0.248231362
  H    0.510064365   1.004847286   0.772965834
  H    1.122481191   1.457031671  -0.797048617
  H    2.880881291   2.864113691   0.296016104
  H    2.269361890   2.406190013   1.867845722
  H    0.065021382   3.452941893   1.314558410
  H    0.677213953   3.911371048  -0.256287175
  H    1.807478612   4.893307391   2.421359639
  H    0.802999126   5.840040648   1.326871844
  H    2.424669215   5.354733351   0.839369823
