25
charge=0 charge_a=0 charge_b=0 selection_a=1-10 selection_b=11-25 scaling=1.25 benchmark_Eint=-3.615 benchmark_unit=kcal/mol group=HBCNO
  C   -2.436575424   0.312811413  -1.032583383
  C   -1.474729595  -0.796885661  -1.392193795
  O   -1.752244784  -1.960850233  -1.213313500
  C   -0.154788959  -0.368319590  -1.983043685
  H   -3.295421837  -0.089753348  -0.504402301
  H   -2.773013918   0.811281608  -1.943796097
  H   -1.936489466   1.063216120  -0.421107690
  H    0.413520443   0.179592507  -1.230360101
  H   -0.313297481   0.307785969  -2.824447653
  H    0.414275874  -1.235944883  -2.301816266
  C    0.054343764  -0.623682013   2.316355040
  C   -1.267467643  -1.219307564   2.714436317
  C    0.281265763   0.749445664   2.381731268
  C    1.506397324   1.293737666   2.010614594
  C    2.530497155   0.466722944   1.569269958
  C    2.317076122  -0.906162357   1.498798761
  C    1.091252277  -1.442132866   1.864311436
  H   -1.989165442  -0.445532203   2.969662169
  H   -1.155723216  -1.870643043   3.582413021
  H   -1.680371561  -1.820188381   1.904515890
  H   -0.509895008   1.400599160   2.729674434
  H    1.659668929   2.362312868   2.069948030
  H    3.484335945   0.885559889   1.281845324
  H    3.105461536  -1.558577434   1.150393477
  H    0.927353210  -2.508377838   1.787911956
