20
charge=0 charge_a=0 charge_b=0 selection_a=1-10 selection_b=11-20 scaling=1.00 benchmark_Eint=-3.320 benchmark_unit=kcal/mol group=HBCNO
  C    2.193484667  -0.784906671  -0.216497328
  O    1.246481504  -0.429267084  -1.201337892
  O    0.274672555  -1.521675876  -1.209708371
  C   -0.733743225  -1.109973546  -2.107306360
  H    2.921282619   0.024504046  -0.228504263
  H    2.683610274  -1.727359370  -0.466138949
  H    1.732636169  -0.851175813   0.770388931
  H   -1.444619770  -1.934300895  -2.121915735
  H   -0.328242843  -0.953376669  -3.108255154
  H   -1.229003514  -0.202502154  -1.757582292
  C   -1.391541037  -0.609498671   1.781478383
  C   -1.296277223   0.712580811   1.934143975
  C   -0.560324783   1.585531362   1.037017730
  C   -0.469012376   2.907157706   1.193118686
  H   -1.952043951  -1.216293900   2.477884070
  H   -0.910280242  -1.117721233   0.956488784
  H   -1.790708731   1.191101010   2.773411631
  H   -0.062845541   1.111129507   0.198763555
  H   -0.951834912   3.413096498   2.019475062
  H    0.088696694   3.521575600   0.501534883
