28
charge=0 charge_a=0 charge_b=0 selection_a=1-10 selection_b=11-28 scaling=1.25 benchmark_Eint=-1.712 benchmark_unit=kcal/mol group=HBCNO
  C    1.275953310  -1.222728095  -2.622600043
  O    1.655262584   0.053415365  -2.157038144
  O    0.412828069   0.820393035  -2.091861512
  C    0.812780589   2.136467984  -1.782451901
  H    2.204043305  -1.790625906  -2.661180352
  H    0.835497208  -1.164016375  -3.619694647
  H    0.578922815  -1.703097560  -1.934469136
  H   -0.115116034   2.702696156  -1.723596198
  H    1.451146727   2.549371392  -2.565723433
  H    1.327611407   2.176896064  -0.821040764
  C   -0.763746516  -1.665277641   1.430580372
  C    0.194240597  -0.526098813   1.784661278
  C   -0.571337958   0.764301063   2.083210296
  C   -1.617861825   0.555586713   3.179830530
  C   -2.573002483  -0.587167486   2.827886605
  C   -1.811084155  -1.879459782   2.525452777
  H   -0.206666052  -2.587752915   1.255451703
  H   -1.270941570  -1.420609641   0.492789149
  H    0.903344103  -0.365501068   0.973253428
  H    0.777279198  -0.809287872   2.666740589
  H   -1.071506968   1.095779810   1.169057868
  H    0.121077068   1.558701692   2.368443251
  H   -2.177953339   1.476826549   3.350084586
  H   -1.110062580   0.320867055   4.120451138
  H   -3.159431017  -0.304332971   1.948315592
  H   -3.285451775  -0.748585348   3.638766983
  H   -2.506784980  -2.669039012   2.235892518
  H   -1.311727672  -2.222110247   3.437026934
