25
charge=0 charge_a=0 charge_b=0 selection_a=1-10 selection_b=11-25 scaling=1.10 benchmark_Eint=-4.917 benchmark_unit=kcal/mol group=HBCNO
  C   -2.436575424   0.312811413  -1.032583383
  C   -1.474729595  -0.796885661  -1.392193795
  O   -1.752244784  -1.960850233  -1.213313500
  C   -0.154788959  -0.368319590  -1.983043685
  H   -3.295421837  -0.089753348  -0.504402301
  H   -2.773013918   0.811281608  -1.943796097
  H   -1.936489466   1.063216120  -0.421107690
  H    0.413520443   0.179592507  -1.230360101
  H   -0.313297481   0.307785969  -2.824447653
  H    0.414275874  -1.235944883  -2.301816266
  C   -0.162843047  -0.664476408   1.995074145
  C   -1.484654454  -1.260101959   2.393155422
  C    0.064078952   0.708651269   2.060450373
  C    1.289210513   1.252943271   1.689333699
  C    2.313310344   0.425928549   1.247989063
  C    2.099889311  -0.946956752   1.177517866
  C    0.874065466  -1.482927261   1.543030541
  H   -2.206352253  -0.486326598   2.648381274
  H   -1.372910027  -1.911437438   3.261132126
  H   -1.897558372  -1.860982776   1.583234995
  H   -0.727081819   1.359804765   2.408393539
  H    1.442482118   2.321518473   1.748667135
  H    3.267149134   0.844765494   0.960564429
  H    2.888274725  -1.599371829   0.829112582
  H    0.710166399  -2.549172233   1.466631061
