20
charge=0 charge_a=0 charge_b=0 selection_a=1-3 selection_b=4-20 scaling=1.50 benchmark_Eint=-0.420 benchmark_unit=kcal/mol group=HBCNO
  O   -1.066721476  -0.638432170  -2.216196274
  C   -1.426009724  -1.375105499  -1.397377519
  O   -1.787723385  -2.114235453  -0.581851541
  C    2.014777099   0.357909668   1.681548022
  C    1.461010912   1.530229824   2.500792827
  C    0.003699552   1.793566192   2.101925449
  C    1.526483049   1.185132482   3.993086738
  C    2.298998076   2.784367531   2.226538009
  H    1.438586422  -0.550857386   1.860752815
  H    3.051956294   0.150985056   1.947811006
  H    1.984058026   0.578406351   0.613662117
  H   -0.617767314   0.917168990   2.290754683
  H   -0.072303410   2.046177277   1.043440242
  H   -0.412973192   2.624740648   2.672012211
  H    0.936794569   0.294664235   4.214757904
  H    1.138971703   2.003693092   4.601020806
  H    2.553850363   0.993214808   4.305308337
  H    2.268704916   3.051472511   1.169390074
  H    3.342279740   2.625482159   2.502394151
  H    1.927229581   3.635704572   2.798201275
