20
charge=0 charge_a=0 charge_b=0 selection_a=1-3 selection_b=4-20 scaling=1.05 benchmark_Eint=-1.744 benchmark_unit=kcal/mol group=HBCNO
  O   -1.066721476  -0.638432170  -2.216196274
  C   -1.426009724  -1.375105499  -1.397377519
  O   -1.787723385  -2.114235453  -0.581851541
  C    1.334986512  -0.326202936   0.763663828
  C    0.781220325   0.846117220   1.582908633
  C   -0.676091035   1.109453588   1.184041255
  C    0.846692462   0.501019878   3.075202544
  C    1.619207489   2.100254927   1.308653815
  H    0.758795835  -1.234969990   0.942868621
  H    2.372165707  -0.533127548   1.029926812
  H    1.304267439  -0.105706253  -0.304222077
  H   -1.297557901   0.233056386   1.372870489
  H   -0.752093997   1.362064673   0.125556048
  H   -1.092763779   1.940628044   1.754128017
  H    0.257003982  -0.389448369   3.296873710
  H    0.459181116   1.319580488   3.683136612
  H    1.874059776   0.309102204   3.387424143
  H    1.588914329   2.367359907   0.251505880
  H    2.662489153   1.941369555   1.584509957
  H    1.247438994   2.951591968   1.880317081
