29
charge=0 charge_a=0 charge_b=0 selection_a=1-12 selection_b=13-29 scaling=1.10 benchmark_Eint=-2.523 benchmark_unit=kcal/mol group=HBCNO
  O    0.740763899   0.308232496  -1.881144402
  C   -0.272371594   1.250494693  -2.143850643
  O   -0.755037434   1.828351543  -0.953678620
  C    0.302847884   2.419790637  -0.236363398
  O    1.320044670   1.485537462   0.038961220
  C    1.788673212   0.910066127  -1.157925203
  H   -1.096829683   0.726102061  -2.613905777
  H    0.119948164   2.038973907  -2.803442186
  H   -0.093908597   2.764541755   0.712008434
  H    0.718798052   3.256917899  -0.816754548
  H    2.497046174   0.132455097  -0.894850034
  H    2.266060101   1.684453677  -1.776880308
  C   -2.408683885  -1.027336792   1.236304907
  C   -1.314537865  -2.041350852   1.592284534
  C   -0.195419432  -1.332993454   2.365396598
  C   -1.911355721  -3.155724651   2.459459168
  C   -0.740457061  -2.645063672   0.304671762
  H   -2.837632799  -0.585760811   2.137561104
  H   -3.218528079  -1.506941794   0.683674751
  H   -2.010841080  -0.220453357   0.621676858
  H   -0.578317618  -0.892526990   3.287696389
  H    0.249431583  -0.537115077   1.768972261
  H    0.595127038  -2.035251328   2.635766807
  H   -2.327187934  -2.752230258   3.384052620
  H   -1.152590917  -3.892681849   2.727332217
  H   -2.711949751  -3.676281910   1.931592809
  H   -0.310316464  -1.872921755  -0.332430339
  H   -1.517354599  -3.159090333  -0.264053651
  H    0.041436806  -3.372113880   0.531189375
