20
charge=0 charge_a=0 charge_b=0 selection_a=1-10 selection_b=11-20 scaling=2.00 benchmark_Eint=-0.329 benchmark_unit=kcal/mol group=HBCNO
  C    2.193484667  -0.784906671  -0.216497328
  O    1.246481504  -0.429267084  -1.201337892
  O    0.274672555  -1.521675876  -1.209708371
  C   -0.733743225  -1.109973546  -2.107306360
  H    2.921282619   0.024504046  -0.228504263
  H    2.683610274  -1.727359370  -0.466138949
  H    1.732636169  -0.851175813   0.770388931
  H   -1.444619770  -1.934300895  -2.121915735
  H   -0.328242843  -0.953376669  -3.108255154
  H   -1.229003514  -0.202502154  -1.757582292
  C   -2.477114967   0.758763131   3.512614402
  C   -2.381851153   2.080842613   3.665279994
  C   -1.645898713   2.953793164   2.768153749
  C   -1.554586306   4.275419508   2.924254705
  H   -3.037617881   0.151967902   4.209020089
  H   -1.995854172   0.250540569   2.687624803
  H   -2.876282661   2.559362812   4.504547650
  H   -1.148419471   2.479391309   1.929899574
  H   -2.037408842   4.781358300   3.750611081
  H   -0.996877236   4.889837402   2.232670902
