28
charge=0 charge_a=0 charge_b=0 selection_a=1-10 selection_b=11-28 scaling=1.10 benchmark_Eint=-2.448 benchmark_unit=kcal/mol group=HBCNO
  C    1.275953310  -1.222728095  -2.622600043
  O    1.655262584   0.053415365  -2.157038144
  O    0.412828069   0.820393035  -2.091861512
  C    0.812780589   2.136467984  -1.782451901
  H    2.204043305  -1.790625906  -2.661180352
  H    0.835497208  -1.164016375  -3.619694647
  H    0.578922815  -1.703097560  -1.934469136
  H   -0.115116034   2.702696156  -1.723596198
  H    1.451146727   2.549371392  -2.565723433
  H    1.327611407   2.176896064  -0.821040764
  C   -0.600357777  -1.591757485   1.103114118
  C    0.357629336  -0.452578657   1.457195024
  C   -0.407949219   0.837821219   1.755744042
  C   -1.454473086   0.629106869   2.852364276
  C   -2.409613744  -0.513647330   2.500420351
  C   -1.647695416  -1.805939626   2.197986523
  H   -0.043277313  -2.514232759   0.927985449
  H   -1.107552831  -1.347089485   0.165322895
  H    1.066732842  -0.291980912   0.645787174
  H    0.940667937  -0.735767716   2.339274335
  H   -0.908118229   1.169299966   0.841591614
  H    0.284465807   1.632221848   2.040976997
  H   -2.014564600   1.550346705   3.022618332
  H   -0.946673841   0.394387211   3.792984884
  H   -2.996042278  -0.230812815   1.620849338
  H   -3.122063036  -0.675065192   3.311300729
  H   -2.343396241  -2.595518856   1.908426264
  H   -1.148338933  -2.148590091   3.109560680
