28
charge=0 charge_a=0 charge_b=0 selection_a=1-10 selection_b=11-28 scaling=1.50 benchmark_Eint=-0.845 benchmark_unit=kcal/mol group=HBCNO
  C    1.275953310  -1.222728095  -2.622600043
  O    1.655262584   0.053415365  -2.157038144
  O    0.412828069   0.820393035  -2.091861512
  C    0.812780589   2.136467984  -1.782451901
  H    2.204043305  -1.790625906  -2.661180352
  H    0.835497208  -1.164016375  -3.619694647
  H    0.578922815  -1.703097560  -1.934469136
  H   -0.115116034   2.702696156  -1.723596198
  H    1.451146727   2.549371392  -2.565723433
  H    1.327611407   2.176896064  -0.821040764
  C   -1.036061081  -1.787811234   1.976357460
  C   -0.078073968  -0.648632406   2.330438366
  C   -0.843652523   0.641767470   2.628987384
  C   -1.890176390   0.433053120   3.725607618
  C   -2.845317048  -0.709701079   3.373663693
  C   -2.083398720  -2.001993375   3.071229865
  H   -0.478980617  -2.710286508   1.801228791
  H   -1.543256135  -1.543143234   1.038566237
  H    0.631029538  -0.488034661   1.519030516
  H    0.504964633  -0.931821465   3.212517677
  H   -1.343821533   0.973246217   1.714834956
  H   -0.151237497   1.436168099   2.914220339
  H   -2.450267904   1.354292956   3.895861674
  H   -1.382377145   0.198333462   4.666228226
  H   -3.431745582  -0.426866564   2.494092680
  H   -3.557766340  -0.871118941   4.184544071
  H   -2.779099545  -2.791572605   2.781669606
  H   -1.584042237  -2.344643840   3.982804022
