28
charge=0 charge_a=0 charge_b=0 selection_a=1-10 selection_b=11-28 scaling=2.00 benchmark_Eint=-0.225 benchmark_unit=kcal/mol group=HBCNO
  C    1.275953310  -1.222728095  -2.622600043
  O    1.655262584   0.053415365  -2.157038144
  O    0.412828069   0.820393035  -2.091861512
  C    0.812780589   2.136467984  -1.782451901
  H    2.204043305  -1.790625906  -2.661180352
  H    0.835497208  -1.164016375  -3.619694647
  H    0.578922815  -1.703097560  -1.934469136
  H   -0.115116034   2.702696156  -1.723596198
  H    1.451146727   2.549371392  -2.565723433
  H    1.327611407   2.176896064  -0.821040764
  C   -1.580690212  -2.032878420   3.067911638
  C   -0.622703099  -0.893699592   3.421992544
  C   -1.388281654   0.396700284   3.720541562
  C   -2.434805521   0.187985934   4.817161796
  C   -3.389946179  -0.954768265   4.465217871
  C   -2.628027851  -2.247060561   4.162784043
  H   -1.023609748  -2.955353694   2.892782969
  H   -2.087885266  -1.788210420   2.130120415
  H    0.086400407  -0.733101847   2.610584694
  H   -0.039664498  -1.176888651   4.304071855
  H   -1.888450664   0.728179031   2.806389134
  H   -0.695866628   1.191100913   4.005774517
  H   -2.994897035   1.109225770   4.987415852
  H   -1.927006276  -0.046733724   5.757782404
  H   -3.976374713  -0.671933750   3.585646858
  H   -4.102395471  -1.116186127   5.276098249
  H   -3.323728676  -3.036639791   3.873223784
  H   -2.128671368  -2.589711026   5.074358200
