14
charge=0 charge_a=0 charge_b=0 selection_a=1-3 selection_b=4-14 scaling=2.00 benchmark_Eint=-0.216 benchmark_unit=kcal/mol group=HBCNO
  O    1.371378482  -0.327493536  -1.511427622
  C    0.240324987  -0.098050902  -1.611915728
  O   -0.888875412   0.129037637  -1.736612130
  C   -2.458313220   0.937107132   4.161519127
  C   -1.311553873   1.903540435   4.116301231
  C   -0.157355214   1.224086511   4.223025068
  C   -0.448681771  -0.207525772   4.339249971
  C   -1.778887406  -0.393138916   4.302710741
  H   -3.073794801   0.989126919   3.258633969
  H   -3.130398990   1.142033995   5.001387652
  H   -1.426032487   2.970673970   4.015726145
  H    0.835371209   1.646878911   4.221544910
  H    0.301304694  -0.977375503   4.434584220
  H   -2.301860936  -1.333669827   4.365261347
