14
charge=0 charge_a=0 charge_b=0 selection_a=1-3 selection_b=4-14 scaling=0.85 benchmark_Eint=-1.559 benchmark_unit=kcal/mol group=HBCNO
  O    1.371378482  -0.327493536  -1.511427622
  C    0.240324987  -0.098050902  -1.611915728
  O   -0.888875412   0.129037637  -1.736612130
  C   -1.669356212   0.516597190   1.072075819
  C   -0.522596865   1.483030493   1.026857923
  C    0.631601794   0.803576569   1.133581760
  C    0.340275237  -0.628035714   1.249806663
  C   -0.989930398  -0.813648858   1.213267433
  H   -2.284837793   0.568616977   0.169190661
  H   -2.341441982   0.721524053   1.911944344
  H   -0.637075479   2.550164028   0.926282837
  H    1.624328217   1.226368969   1.132101602
  H    1.090261702  -1.397885445   1.345140912
  H   -1.512903928  -1.754179769   1.275818039
