28
charge=0 charge_a=0 charge_b=0 selection_a=1-10 selection_b=11-28 scaling=0.80 benchmark_Eint=0.027 benchmark_unit=kcal/mol group=HBCNO
  C    1.713966823  -0.076412247  -2.476881551
  C    2.130562995   0.264183940  -1.063800574
  O    2.299842532  -0.590641480  -0.226484478
  C    2.321401478   1.731345572  -0.756207620
  H    1.465162926  -1.130624865  -2.550951675
  H    2.534446117   0.150475865  -3.160708222
  H    0.864620187   0.532896304  -2.787071064
  H    1.356481254   2.238468526  -0.810532279
  H    2.970159646   2.200228473  -1.497032165
  H    2.738720779   1.855815465   0.238232804
  C   -0.840147911   0.898539668  -0.175994487
  C   -2.247377936   0.305450727  -0.272879041
  C   -2.238826090  -1.193504214   0.035023171
  C   -1.605061523  -1.479360367   1.398269120
  C   -0.200134060  -0.881704994   1.498583601
  C   -0.205286505   0.615958333   1.187174074
  H   -0.868077666   1.973124688  -0.368927382
  H   -0.219593889   0.452165746  -0.958077382
  H   -2.668030318   0.486693043  -1.263722100
  H   -2.900763863   0.815020111   0.441816133
  H   -1.668368833  -1.714064833  -0.740353895
  H   -3.253863171  -1.592717721  -0.003461705
  H   -1.571653212  -2.554864747   1.580180273
  H   -2.237090005  -1.049858324   2.182008776
  H    0.464713569  -1.385889060   0.793283923
  H    0.214945797  -1.056103609   2.492433970
  H    0.812653978   1.004531038   1.221834219
  H   -0.772229943   1.145669869   1.959118946
