21
charge=0 charge_a=0 charge_b=0 selection_a=1-9 selection_b=10-21 scaling=1.25 benchmark_Eint=-1.751 benchmark_unit=kcal/mol group=HBCNO
  C   -0.980914997  -0.958073055  -2.401662273
  O    0.220283080  -0.222755997  -2.416777882
  C    0.080380602   1.044519393  -1.810342416
  H   -0.783645178  -1.917992810  -2.873403748
  H   -1.772348211  -0.442867852  -2.959242806
  H   -1.331271635  -1.126240052  -1.377433315
  H    1.051101779   1.531704280  -1.847085396
  H   -0.230686117   0.954221318  -0.765624406
  H   -0.651487862   1.660367392  -2.346492638
  C    0.337496860  -1.395901804   1.836696135
  C   -0.210404280  -0.425861804   2.668452798
  C    0.508440844   0.728446048   2.957025305
  C    1.775673856   0.910305402   2.414939215
  C    2.321646036  -0.059470461   1.582373863
  C    1.602042372  -1.211656892   1.290998396
  H   -0.222035700  -2.292782154   1.611234233
  H   -1.195261479  -0.568937588   3.090552691
  H    0.082803670   1.483405337   3.602988926
  H    2.335188774   1.807691481   2.638961386
  H    3.303209253   0.085758011   1.154000289
  H    2.019681248  -1.956347680   0.629616953
