21
charge=0 charge_a=0 charge_b=0 selection_a=1-9 selection_b=10-21 scaling=1.50 benchmark_Eint=-0.868 benchmark_unit=kcal/mol group=HBCNO
  C   -0.980914997  -0.958073055  -2.401662273
  O    0.220283080  -0.222755997  -2.416777882
  C    0.080380602   1.044519393  -1.810342416
  H   -0.783645178  -1.917992810  -2.873403748
  H   -1.772348211  -0.442867852  -2.959242806
  H   -1.331271635  -1.126240052  -1.377433315
  H    1.051101779   1.531704280  -1.847085396
  H   -0.230686117   0.954221318  -0.765624406
  H   -0.651487862   1.660367392  -2.346492638
  C    0.534315474  -1.426563050   2.494403483
  C   -0.013585666  -0.456523050   3.326160146
  C    0.705259458   0.697784802   3.614732653
  C    1.972492470   0.879644156   3.072646563
  C    2.518464650  -0.090131707   2.240081211
  C    1.798860986  -1.242318138   1.948705744
  H   -0.025217086  -2.323443400   2.268941581
  H   -0.998442865  -0.599598834   3.748260039
  H    0.279622284   1.452744091   4.260696274
  H    2.532007388   1.777030235   3.296668734
  H    3.500027867   0.055096765   1.811707637
  H    2.216499862  -1.987008926   1.287324301
