25
charge=0 charge_a=0 charge_b=0 selection_a=1-10 selection_b=11-25 scaling=0.80 benchmark_Eint=-0.386 benchmark_unit=kcal/mol group=HBCNO
  C   -2.436575424   0.312811413  -1.032583383
  C   -1.474729595  -0.796885661  -1.392193795
  O   -1.752244784  -1.960850233  -1.213313500
  C   -0.154788959  -0.368319590  -1.983043685
  H   -3.295421837  -0.089753348  -0.504402301
  H   -2.773013918   0.811281608  -1.943796097
  H   -1.936489466   1.063216120  -0.421107690
  H    0.413520443   0.179592507  -1.230360101
  H   -0.313297481   0.307785969  -2.824447653
  H    0.414275874  -1.235944883  -2.301816266
  C   -0.597216669  -0.746065199   1.352512355
  C   -1.919028076  -1.341690750   1.750593632
  C   -0.370294670   0.627062478   1.417888583
  C    0.854836891   1.171354480   1.046771909
  C    1.878936722   0.344339758   0.605427273
  C    1.665515689  -1.028545543   0.534956076
  C    0.439691844  -1.564516052   0.900468751
  H   -2.640725875  -0.567915389   2.005819484
  H   -1.807283649  -1.993026229   2.618570336
  H   -2.331931994  -1.942571567   0.940673205
  H   -1.161455441   1.278215974   1.765831749
  H    1.008108496   2.239929682   1.106105345
  H    2.832775512   0.763176703   0.318002639
  H    2.453901103  -1.680960620   0.186550792
  H    0.275792777  -2.630761024   0.824069271
