20
charge=0 charge_a=0 charge_b=0 selection_a=1-3 selection_b=4-20 scaling=0.90 benchmark_Eint=-1.422 benchmark_unit=kcal/mol group=HBCNO
  O   -1.066721476  -0.638432170  -2.216196274
  C   -1.426009724  -1.375105499  -1.397377519
  O   -1.787723385  -2.114235453  -0.581851541
  C    1.108389650  -0.554240471   0.457702430
  C    0.554623463   0.618079685   1.276947235
  C   -0.902687897   0.881416053   0.878079857
  C    0.620095600   0.272982343   2.769241146
  C    1.392610627   1.872217392   1.002692417
  H    0.532198973  -1.463007525   0.636907223
  H    2.145568845  -0.761165083   0.723965414
  H    1.077670577  -0.333743788  -0.610183475
  H   -1.524154763   0.005018851   1.066909091
  H   -0.978690859   1.134027138  -0.180405350
  H   -1.319360641   1.712590509   1.448166619
  H    0.030407120  -0.617485904   2.990912312
  H    0.232584254   1.091542953   3.377175214
  H    1.647462914   0.081064669   3.081462745
  H    1.362317467   2.139322372  -0.054455518
  H    2.435892291   1.713332020   1.278548559
  H    1.020842132   2.723554433   1.574355683
