20
charge=0 charge_a=0 charge_b=0 selection_a=1-3 selection_b=4-20 scaling=1.25 benchmark_Eint=-1.004 benchmark_unit=kcal/mol group=HBCNO
  O   -1.066721476  -0.638432170  -2.216196274
  C   -1.426009724  -1.375105499  -1.397377519
  O   -1.787723385  -2.114235453  -0.581851541
  C    1.637115662  -0.022152890   1.171612358
  C    1.083349475   1.150167266   1.990857163
  C   -0.373961885   1.413503634   1.591989785
  C    1.148821612   0.805069924   3.483151074
  C    1.921336639   2.404304973   1.716602345
  H    1.060924985  -0.930919944   1.350817151
  H    2.674294857  -0.229077502   1.437875342
  H    1.606396589   0.198343793   0.103726453
  H   -0.995428751   0.537106432   1.780819019
  H   -0.449964847   1.666114719   0.533504578
  H   -0.790634629   2.244678090   2.162076547
  H    0.559133132  -0.085398323   3.704822240
  H    0.761310266   1.623630534   4.091085142
  H    2.176188926   0.613152250   3.795372673
  H    1.891043479   2.671409953   0.659454410
  H    2.964618303   2.245419601   1.992458487
  H    1.549568144   3.255642014   2.288265611
