21
charge=0 charge_a=0 charge_b=0 selection_a=1-9 selection_b=10-21 scaling=1.10 benchmark_Eint=-2.485 benchmark_unit=kcal/mol group=HBCNO
  C   -0.980914997  -0.958073055  -2.401662273
  O    0.220283080  -0.222755997  -2.416777882
  C    0.080380602   1.044519393  -1.810342416
  H   -0.783645178  -1.917992810  -2.873403748
  H   -1.772348211  -0.442867852  -2.959242806
  H   -1.331271635  -1.126240052  -1.377433315
  H    1.051101779   1.531704280  -1.847085396
  H   -0.230686117   0.954221318  -0.765624406
  H   -0.651487862   1.660367392  -2.346492638
  C    0.219405692  -1.377505056   1.442071726
  C   -0.328495448  -0.407465056   2.273828389
  C    0.390349676   0.746842796   2.562400896
  C    1.657582688   0.928702150   2.020314806
  C    2.203554868  -0.041073713   1.187749454
  C    1.483951204  -1.193260144   0.896373987
  H   -0.340126868  -2.274385406   1.216609824
  H   -1.313352647  -0.550540840   2.695928282
  H   -0.035287498   1.501802085   3.208364517
  H    2.217097606   1.826088229   2.244336977
  H    3.185118085   0.104154759   0.759375880
  H    1.901590080  -1.937950932   0.234992544
