16
charge=0 charge_a=0 charge_b=0 selection_a=1-10 selection_b=11-16 scaling=1.25 benchmark_Eint=-1.203 benchmark_unit=kcal/mol group=HBCNO
  C    0.642260909  -1.768056320  -1.803919978
  O    0.777606207  -0.373366174  -1.962478250
  O   -0.516070768   0.176329332  -1.565528796
  C   -0.296807087   1.558388344  -1.397988289
  H    1.600570019  -2.178712941  -2.118611962
  H   -0.151951256  -2.161162184  -2.441885700
  H    0.449230777  -2.028826944  -0.762521161
  H   -1.267222387   1.959057754  -1.109783635
  H    0.031201986   2.022033333  -2.330790381
  H    0.430425321   1.748718764  -0.607633704
  C   -2.095231475  -0.320296198   2.940147766
  C   -0.917538019  -0.280399784   2.696969997
  C    0.415468403  -0.234582519   2.419771009
  C    1.589869473  -0.190527416   2.162759219
  H   -3.134202814  -0.357488367   3.150335215
  H    2.621839949  -0.150203358   1.921544558
