16
charge=0 charge_a=0 charge_b=0 selection_a=1-10 selection_b=11-16 scaling=0.80 benchmark_Eint=0.446 benchmark_unit=kcal/mol group=HBCNO
  C    0.642260909  -1.768056320  -1.803919978
  O    0.777606207  -0.373366174  -1.962478250
  O   -0.516070768   0.176329332  -1.565528796
  C   -0.296807087   1.558388344  -1.397988289
  H    1.600570019  -2.178712941  -2.118611962
  H   -0.151951256  -2.161162184  -2.441885700
  H    0.449230777  -2.028826944  -0.762521161
  H   -1.267222387   1.959057754  -1.109783635
  H    0.031201986   2.022033333  -2.330790381
  H    0.430425321   1.748718764  -0.607633704
  C   -1.966913610  -0.271194077   1.595036838
  C   -0.789220154  -0.231297663   1.351859069
  C    0.543786268  -0.185480398   1.074660081
  C    1.718187338  -0.141425295   0.817648291
  H   -3.005884949  -0.308386246   1.805224287
  H    2.750157814  -0.101101237   0.576433630
