25
charge=0 charge_a=0 charge_b=0 selection_a=1-10 selection_b=11-25 scaling=2.00 benchmark_Eint=-0.605 benchmark_unit=kcal/mol group=HBCNO
  C   -2.436575424   0.312811413  -1.032583383
  C   -1.474729595  -0.796885661  -1.392193795
  O   -1.752244784  -1.960850233  -1.213313500
  C   -0.154788959  -0.368319590  -1.983043685
  H   -3.295421837  -0.089753348  -0.504402301
  H   -2.773013918   0.811281608  -1.943796097
  H   -1.936489466   1.063216120  -0.421107690
  H    0.413520443   0.179592507  -1.230360101
  H   -0.313297481   0.307785969  -2.824447653
  H    0.414275874  -1.235944883  -2.301816266
  C    1.140277820  -0.419710037   3.922759515
  C   -0.181533587  -1.015335588   4.320840792
  C    1.367199819   0.953417640   3.988135743
  C    2.592331380   1.497709642   3.617019069
  C    3.616431211   0.670694920   3.175674433
  C    3.403010178  -0.702190381   3.105203236
  C    2.177186333  -1.238160890   3.470715911
  H   -0.903231386  -0.241560227   4.576066644
  H   -0.069789160  -1.666671067   5.188817496
  H   -0.594437505  -1.616216405   3.510920365
  H    0.576039048   1.604571136   4.336078909
  H    2.745602985   2.566284844   3.676352505
  H    4.570270001   1.089531865   2.888249799
  H    4.191395592  -1.354605458   2.756797952
  H    2.013287266  -2.304405862   3.394316431
