28
charge=0 charge_a=0 charge_b=0 selection_a=1-10 selection_b=11-28 scaling=0.95 benchmark_Eint=-2.775 benchmark_unit=kcal/mol group=HBCNO
  C    1.275953310  -1.222728095  -2.622600043
  O    1.655262584   0.053415365  -2.157038144
  O    0.412828069   0.820393035  -2.091861512
  C    0.812780589   2.136467984  -1.782451901
  H    2.204043305  -1.790625906  -2.661180352
  H    0.835497208  -1.164016375  -3.619694647
  H    0.578922815  -1.703097560  -1.934469136
  H   -0.115116034   2.702696156  -1.723596198
  H    1.451146727   2.549371392  -2.565723433
  H    1.327611407   2.176896064  -0.821040764
  C   -0.436969038  -1.518237329   0.775647865
  C    0.521018075  -0.379058501   1.129728771
  C   -0.244560480   0.911341375   1.428277789
  C   -1.291084347   0.702627025   2.524898023
  C   -2.246225005  -0.440127174   2.172954098
  C   -1.484306677  -1.732419470   1.870520270
  H    0.120111426  -2.440712603   0.600519196
  H   -0.944164092  -1.273569329  -0.162143358
  H    1.230121581  -0.218460756   0.318320921
  H    1.104056676  -0.662247560   2.011808082
  H   -0.744729490   1.242820122   0.514125361
  H    0.447854546   1.705742004   1.713510744
  H   -1.851175861   1.623866861   2.695152079
  H   -0.783285102   0.467907367   3.465518631
  H   -2.832653539  -0.157292659   1.293383085
  H   -2.958674297  -0.601545036   2.983834476
  H   -2.180007502  -2.521998700   1.580960011
  H   -0.984950194  -2.075069935   2.782094427
