21
charge=0 charge_a=0 charge_b=0 selection_a=1-9 selection_b=10-21 scaling=0.80 benchmark_Eint=0.459 benchmark_unit=kcal/mol group=HBCNO
  C   -0.980914997  -0.958073055  -2.401662273
  O    0.220283080  -0.222755997  -2.416777882
  C    0.080380602   1.044519393  -1.810342416
  H   -0.783645178  -1.917992810  -2.873403748
  H   -1.772348211  -0.442867852  -2.959242806
  H   -1.331271635  -1.126240052  -1.377433315
  H    1.051101779   1.531704280  -1.847085396
  H   -0.230686117   0.954221318  -0.765624406
  H   -0.651487862   1.660367392  -2.346492638
  C   -0.016776644  -1.340711561   0.652822909
  C   -0.564677784  -0.370671561   1.484579572
  C    0.154167340   0.783636291   1.773152079
  C    1.421400352   0.965495645   1.231065989
  C    1.967372532  -0.004280218   0.398500637
  C    1.247768868  -1.156466649   0.107125170
  H   -0.576309204  -2.237591911   0.427361007
  H   -1.549534983  -0.513747345   1.906679465
  H   -0.271469834   1.538595580   2.419115700
  H    1.980915270   1.862881724   1.455088160
  H    2.948935749   0.140948254  -0.029872937
  H    1.665407744  -1.901157437  -0.554256273
