20
charge=0 charge_a=0 charge_b=0 selection_a=1-10 selection_b=11-20 scaling=0.95 benchmark_Eint=-3.214 benchmark_unit=kcal/mol group=HBCNO
  C    2.193484667  -0.784906671  -0.216497328
  O    1.246481504  -0.429267084  -1.201337892
  O    0.274672555  -1.521675876  -1.209708371
  C   -0.733743225  -1.109973546  -2.107306360
  H    2.921282619   0.024504046  -0.228504263
  H    2.683610274  -1.727359370  -0.466138949
  H    1.732636169  -0.851175813   0.770388931
  H   -1.444619770  -1.934300895  -2.121915735
  H   -0.328242843  -0.953376669  -3.108255154
  H   -1.229003514  -0.202502154  -1.757582292
  C   -1.337262341  -0.677911761   1.694921582
  C   -1.241998527   0.644167721   1.847587174
  C   -0.506046087   1.517118272   0.950460929
  C   -0.414733680   2.838744616   1.106561885
  H   -1.897765255  -1.284706990   2.391327269
  H   -0.856001546  -1.186134323   0.869931983
  H   -1.736430035   1.122687920   2.686854830
  H   -0.008566845   1.042716417   0.112206754
  H   -0.897556216   3.344683408   1.932918261
  H    0.142975390   3.453162510   0.414978082
