28
charge=0 charge_a=0 charge_b=0 selection_a=1-10 selection_b=11-28 scaling=1.05 benchmark_Eint=-2.663 benchmark_unit=kcal/mol group=HBCNO
  C    1.275953310  -1.222728095  -2.622600043
  O    1.655262584   0.053415365  -2.157038144
  O    0.412828069   0.820393035  -2.091861512
  C    0.812780589   2.136467984  -1.782451901
  H    2.204043305  -1.790625906  -2.661180352
  H    0.835497208  -1.164016375  -3.619694647
  H    0.578922815  -1.703097560  -1.934469136
  H   -0.115116034   2.702696156  -1.723596198
  H    1.451146727   2.549371392  -2.565723433
  H    1.327611407   2.176896064  -0.821040764
  C   -0.545894864  -1.567250767   0.993958701
  C    0.412092249  -0.428071939   1.348039607
  C   -0.353486306   0.862327937   1.646588625
  C   -1.400010173   0.653613587   2.743208859
  C   -2.355150831  -0.489140612   2.391264934
  C   -1.593232503  -1.781432908   2.088831106
  H    0.011185600  -2.489726041   0.818830032
  H   -1.053089918  -1.322582767   0.056167478
  H    1.121195755  -0.267474194   0.536631757
  H    0.995130850  -0.711260998   2.230118918
  H   -0.853655316   1.193806684   0.732436197
  H    0.338928720   1.656728566   1.931821580
  H   -1.960101687   1.574853423   2.913462915
  H   -0.892210928   0.418893929   3.683829467
  H   -2.941579365  -0.206306097   1.511693921
  H   -3.067600123  -0.650558474   3.202145312
  H   -2.288933328  -2.571012138   1.799270847
  H   -1.093876020  -2.124083373   3.000405263
