29
charge=0 charge_a=0 charge_b=0 selection_a=1-12 selection_b=13-29 scaling=2.00 benchmark_Eint=-0.258 benchmark_unit=kcal/mol group=HBCNO
  O    0.740763899   0.308232496  -1.881144402
  C   -0.272371594   1.250494693  -2.143850643
  O   -0.755037434   1.828351543  -0.953678620
  C    0.302847884   2.419790637  -0.236363398
  O    1.320044670   1.485537462   0.038961220
  C    1.788673212   0.910066127  -1.157925203
  H   -1.096829683   0.726102061  -2.613905777
  H    0.119948164   2.038973907  -2.803442186
  H   -0.093908597   2.764541755   0.712008434
  H    0.718798052   3.256917899  -0.816754548
  H    2.497046174   0.132455097  -0.894850034
  H    2.266060101   1.684453677  -1.776880308
  C   -3.327313394  -2.733316105   2.561647057
  C   -2.233167374  -3.747330165   2.917626684
  C   -1.114048941  -3.038972767   3.690738748
  C   -2.829985230  -4.861703964   3.784801318
  C   -1.659086570  -4.351042985   1.630013912
  H   -3.756262308  -2.291740124   3.462903254
  H   -4.137157588  -3.212921107   2.009016901
  H   -2.929470589  -1.926432670   1.947019008
  H   -1.496947127  -2.598506303   4.613038539
  H   -0.669197926  -2.243094390   3.094314411
  H   -0.323502471  -3.741230641   3.961108957
  H   -3.245817443  -4.458209571   4.709394770
  H   -2.071220426  -5.598661162   4.052674367
  H   -3.630579260  -5.382261223   3.256934959
  H   -1.228945973  -3.578901068   0.992911811
  H   -2.435984108  -4.865069646   1.061288499
  H   -0.877192703  -5.078093193   1.856531525
