16
charge=0 charge_a=0 charge_b=0 selection_a=1-10 selection_b=11-16 scaling=1.50 benchmark_Eint=-0.534 benchmark_unit=kcal/mol group=HBCNO
  C    0.642260909  -1.768056320  -1.803919978
  O    0.777606207  -0.373366174  -1.962478250
  O   -0.516070768   0.176329332  -1.565528796
  C   -0.296807087   1.558388344  -1.397988289
  H    1.600570019  -2.178712941  -2.118611962
  H   -0.151951256  -2.161162184  -2.441885700
  H    0.449230777  -2.028826944  -0.762521161
  H   -1.267222387   1.959057754  -1.109783635
  H    0.031201986   2.022033333  -2.330790381
  H    0.430425321   1.748718764  -0.607633704
  C   -2.166519178  -0.347575155   3.687431614
  C   -0.988825722  -0.307678741   3.444253845
  C    0.344180700  -0.261861476   3.167054857
  C    1.518581770  -0.217806373   2.910043067
  H   -3.205490517  -0.384767324   3.897619063
  H    2.550552246  -0.177482315   2.668828406
