16
charge=0 charge_a=0 charge_b=0 selection_a=1-10 selection_b=11-16 scaling=0.90 benchmark_Eint=-1.716 benchmark_unit=kcal/mol group=HBCNO
  C    0.642260909  -1.768056320  -1.803919978
  O    0.777606207  -0.373366174  -1.962478250
  O   -0.516070768   0.176329332  -1.565528796
  C   -0.296807087   1.558388344  -1.397988289
  H    1.600570019  -2.178712941  -2.118611962
  H   -0.151951256  -2.161162184  -2.441885700
  H    0.449230777  -2.028826944  -0.762521161
  H   -1.267222387   1.959057754  -1.109783635
  H    0.031201986   2.022033333  -2.330790381
  H    0.430425321   1.748718764  -0.607633704
  C   -1.995428691  -0.282105659   1.893950378
  C   -0.817735235  -0.242209245   1.650772609
  C    0.515271187  -0.196391980   1.373573621
  C    1.689672257  -0.152336877   1.116561831
  H   -3.034400030  -0.319297828   2.104137827
  H    2.721642733  -0.112012819   0.875347170
