20
charge=0 charge_a=0 charge_b=0 selection_a=1-3 selection_b=4-20 scaling=2.00 benchmark_Eint=-0.089 benchmark_unit=kcal/mol group=HBCNO
  O   -1.066721476  -0.638432170  -2.216196274
  C   -1.426009724  -1.375105499  -1.397377519
  O   -1.787723385  -2.114235453  -0.581851541
  C    2.770099974   1.118034784   2.701419349
  C    2.216333787   2.290354940   3.520664154
  C    0.759022427   2.553691308   3.121796776
  C    2.281805924   1.945257598   5.012958065
  C    3.054320951   3.544492647   3.246409336
  H    2.193909297   0.209267730   2.880624142
  H    3.807279169   0.911110172   2.967682333
  H    2.739380901   1.338531467   1.633533444
  H    0.137555561   1.677294106   3.310626010
  H    0.683019465   2.806302393   2.063311569
  H    0.342349683   3.384865764   3.691883538
  H    1.692117444   1.054789351   5.234629231
  H    1.894294578   2.763818208   5.620892133
  H    3.309173238   1.753339924   5.325179664
  H    3.024027791   3.811597627   2.189261401
  H    4.097602615   3.385607275   3.522265478
  H    2.682552456   4.395829688   3.818072602
