20
charge=0 charge_a=0 charge_b=0 selection_a=1-10 selection_b=11-20 scaling=0.85 benchmark_Eint=-1.826 benchmark_unit=kcal/mol group=HBCNO
  C    2.193484667  -0.784906671  -0.216497328
  O    1.246481504  -0.429267084  -1.201337892
  O    0.274672555  -1.521675876  -1.209708371
  C   -0.733743225  -1.109973546  -2.107306360
  H    2.921282619   0.024504046  -0.228504263
  H    2.683610274  -1.727359370  -0.466138949
  H    1.732636169  -0.851175813   0.770388931
  H   -1.444619770  -1.934300895  -2.121915735
  H   -0.328242843  -0.953376669  -3.108255154
  H   -1.229003514  -0.202502154  -1.757582292
  C   -1.228704948  -0.814737941   1.521807980
  C   -1.133441134   0.507341541   1.674473572
  C   -0.397488694   1.380292092   0.777347327
  C   -0.306176287   2.701918436   0.933448283
  H   -1.789207862  -1.421533170   2.218213667
  H   -0.747444153  -1.322960503   0.696818381
  H   -1.627872642   0.985861740   2.513741228
  H    0.099990548   0.905890237  -0.060906848
  H   -0.788998823   3.207857228   1.759804659
  H    0.251532783   3.316336330   0.241864480
