14
charge=0 charge_a=0 charge_b=0 selection_a=1-3 selection_b=4-14 scaling=1.00 benchmark_Eint=-3.323 benchmark_unit=kcal/mol group=HBCNO
  O    1.371378482  -0.327493536  -1.511427622
  C    0.240324987  -0.098050902  -1.611915728
  O   -0.888875412   0.129037637  -1.736612130
  C   -1.772263648   0.571446313   1.475046685
  C   -0.625504301   1.537879616   1.429828789
  C    0.528694358   0.858425692   1.536552626
  C    0.237367801  -0.573186591   1.652777529
  C   -1.092837834  -0.758799735   1.616238299
  H   -2.387745229   0.623466100   0.572161527
  H   -2.444349418   0.776373176   2.314915210
  H   -0.739982915   2.605013151   1.329253703
  H    1.521420781   1.281218092   1.535072468
  H    0.987354266  -1.343036322   1.748111778
  H   -1.615811364  -1.699330646   1.678788905
