23
charge=0 charge_a=0 charge_b=0 selection_a=1-3 selection_b=4-23 scaling=1.50 benchmark_Eint=-0.431 benchmark_unit=kcal/mol group=HBCNO
  O   -1.264526712   0.270637057  -1.591466624
  C   -2.227124717   0.322506178  -0.948731583
  O   -3.192407108   0.375603682  -0.310368580
  C    0.683219248   0.404495693   3.019824857
  C    1.069747470  -1.021869604   3.422399184
  C    0.288392740  -2.023851673   2.567127111
  C    2.593948812  -1.255440245   3.346220785
  C    3.375708350  -0.256052780   4.203411540
  C    2.981533003  -2.681295236   3.748016731
  H   -0.399790016   0.526781193   3.032580942
  H    1.036179361   0.627663202   2.010358490
  H    1.102266951   1.152271451   3.689097385
  H    0.772931221  -1.168389053   4.467182901
  H    0.614736151  -1.976543313   1.525700280
  H   -0.778631010  -1.803065249   2.596125121
  H    0.417077388  -3.048668097   2.907529154
  H    2.889251836  -1.107200813   2.301127583
  H    3.059165002  -0.313748025   5.247314064
  H    3.242914147   0.770795914   3.870145858
  H    4.442790706  -0.475705501   4.170685897
  H    2.639029703  -2.902454765   4.761454035
  H    4.064624337  -2.802418211   3.733154486
  H    2.559559709  -3.430311320   3.081654134
