20
charge=0 charge_a=0 charge_b=0 selection_a=1-10 selection_b=11-20 scaling=1.10 benchmark_Eint=-3.030 benchmark_unit=kcal/mol group=HBCNO
  C    2.193484667  -0.784906671  -0.216497328
  O    1.246481504  -0.429267084  -1.201337892
  O    0.274672555  -1.521675876  -1.209708371
  C   -0.733743225  -1.109973546  -2.107306360
  H    2.921282619   0.024504046  -0.228504263
  H    2.683610274  -1.727359370  -0.466138949
  H    1.732636169  -0.851175813   0.770388931
  H   -1.444619770  -1.934300895  -2.121915735
  H   -0.328242843  -0.953376669  -3.108255154
  H   -1.229003514  -0.202502154  -1.757582292
  C   -1.500098430  -0.472672491   1.954591985
  C   -1.404834616   0.849406991   2.107257577
  C   -0.668882176   1.722357542   1.210131332
  C   -0.577569769   3.043983886   1.366232288
  H   -2.060601344  -1.079467720   2.650997672
  H   -1.018837635  -0.980895053   1.129602386
  H   -1.899266124   1.327927190   2.946525233
  H   -0.171402934   1.247955687   0.371877157
  H   -1.060392305   3.549922678   2.192588664
  H   -0.019860699   3.658401780   0.674648485
