25
charge=0 charge_a=0 charge_b=0 selection_a=1-17 selection_b=18-25 scaling=0.85 benchmark_Eint=-0.709 benchmark_unit=kcal/mol group=HBCNO
  C    0.801841991   1.612802083  -3.179964089
  C    0.222936423   0.266971749  -2.727927869
  C   -1.017412082   0.511247955  -1.860415964
  C   -0.169530367  -0.561027599  -3.957160501
  C    1.277862026  -0.494172133  -1.916435046
  H    0.071958638   2.176207780  -3.762672046
  H    1.687222595   1.469065879  -3.800614643
  H    1.088955411   2.222827698  -2.322489569
  H   -1.782459942   1.053148247  -2.417646295
  H   -0.770162045   1.100333533  -0.976433916
  H   -1.455337186  -0.430135198  -1.525587736
  H   -0.920011759  -0.041802664  -4.554557672
  H   -0.584622215  -1.525890303  -3.662720336
  H    0.695276196  -0.748825447  -4.594814538
  H    1.583144013   0.074211853  -1.036785609
  H    2.169999459  -0.682637362  -2.514792008
  H    0.894856467  -1.458682899  -1.579647038
  B   -0.703685170  -1.548581833   1.164604638
  H   -0.200327789  -2.618304984   1.093938686
  H   -1.867677499  -1.398027209   1.007609919
  H   -0.058798749  -0.722489859   0.382254689
  B    0.298945000  -0.152171812   1.503622449
  H   -0.205489347   0.917247420   1.569401777
  H    1.463923023  -0.299551814   1.656400580
  H   -0.344929769  -0.980491287   2.290550167
