21
charge=0 charge_a=0 charge_b=0 selection_a=1-9 selection_b=10-21 scaling=1.50 benchmark_Eint=-0.554 benchmark_unit=kcal/mol group=HBCNO
  C    0.758637197   0.023550615  -1.673194816
  C   -0.566393704   0.006878364  -1.660711411
  C   -1.440060097   1.216859466  -1.578609237
  H    1.336908424  -0.887670150  -1.723592016
  H    1.312793355   0.952355667  -1.622577767
  H   -1.078396835  -0.948776968  -1.702359307
  H   -0.850163797   2.130893050  -1.525982439
  H   -2.082569002   1.174916902  -0.696953750
  H   -2.100506793   1.284418891  -2.445861762
  B    1.454337205  -0.832753038   3.168833366
  H    2.628392458  -0.638102375   3.199806755
  N    0.519632956   0.227213795   3.365336030
  H    0.872006486   1.154030451   3.529159306
  B   -0.890955743   0.032882965   3.313056448
  H   -1.649569772   0.937729418   3.467139569
  N   -1.357023462  -1.292241276   3.063517290
  H   -2.348111925  -1.454122019   3.022377945
  B   -0.476711861  -2.398403617   2.869322452
  H   -0.894802451  -3.492701512   2.655480323
  N    0.922458525  -2.136986344   2.942966523
  H    1.562365994  -2.899515634   2.804685369
