27
charge=0 charge_a=0 charge_b=0 selection_a=1-15 selection_b=16-27 scaling=1.25 benchmark_Eint=-1.944 benchmark_unit=kcal/mol group=HBCNO
  C   -1.178736587   2.091722321  -1.303691338
  C   -0.276517361   2.742521355  -0.230303102
  C   -0.214998442   1.646035978  -2.409769176
  C    1.161651578   2.229047613  -0.510136777
  C    1.018636057   1.183622014  -1.629695494
  H   -1.678326794   1.215796357  -0.888426129
  H   -1.956689694   2.764819882  -1.661207179
  H   -0.314109365   3.828903462  -0.300603055
  H   -0.609877647   2.480667964   0.772199402
  H   -0.632919125   0.870979368  -3.051459412
  H    0.044531000   2.495150901  -3.047008439
  H    1.792936576   3.050887088  -0.848950339
  H    1.632232289   1.813849027   0.379207457
  H    0.828306634   0.199938832  -1.199923159
  H    1.913116441   1.101586242  -2.246142111
  B   -0.061205716  -2.924249732   0.391224515
  H   -0.035986998  -3.797379088  -0.417075043
  N    1.115621156  -2.522290432   1.090683440
  H    1.980045318  -2.992670258   0.885879012
  B    1.122254580  -1.477028400   2.061673442
  H    2.120925533  -1.158047083   2.624799214
  N   -0.120382188  -0.828245496   2.324920634
  H   -0.140295725  -0.086493602   3.002858740
  B   -1.333436444  -1.176832377   1.660960234
  H   -2.354325382  -0.613040341   1.896642293
  N   -1.268189840  -2.228928203   0.699132998
  H   -2.110122647  -2.491529827   0.216849499
