14
charge=0 charge_a=0 charge_b=0 selection_a=1-6 selection_b=7-14 scaling=0.90 benchmark_Eint=-1.615 benchmark_unit=kcal/mol group=HBCNO
  C    1.149593679   0.671164585  -2.078172645
  C    0.399091854  -0.033714468  -1.455427262
  C   -0.443462092  -0.813195916  -0.721992139
  C   -1.181025596  -1.484838179  -0.049086842
  H    1.811086921   1.291828249  -2.628428696
  H   -1.831615691  -2.077840254   0.543074754
  B    1.226325411   1.907140190   1.208396239
  H    2.369311133   1.613566879   1.108251298
  H    0.786601623   2.876373482   0.688906483
  H    0.898642793   1.918282069   2.478737364
  B    0.160792071   0.884263894   2.150273390
  H   -0.981772164   1.178852927   2.252177681
  H    0.601045669  -0.083893414   2.671291043
  H    0.489736203   0.876700174   0.885057146
