22
charge=0 charge_a=0 charge_b=0 selection_a=1-8 selection_b=9-22 scaling=0.80 benchmark_Eint=0.526 benchmark_unit=kcal/mol group=HBCNO
  C    0.279406531  -2.661327971   0.654589880
  C    1.130590950  -2.962638052  -0.575651916
  H   -0.661121394  -2.182650030   0.380783200
  H    0.800227273  -2.000243271   1.347436892
  H    0.031942323  -3.572497204   1.198465794
  H    1.384299064  -2.053464023  -1.120639857
  H    0.607089538  -3.623115379  -1.266519174
  H    2.065646566  -3.449162460  -0.299228098
  B   -0.289495700   1.719772516  -0.223163938
  B   -1.156332167   0.396779871  -0.814864594
  B    0.722775896   0.856453575   0.816511102
  B   -1.060195518   0.762830292   0.934778171
  B    0.626759495   0.492042094  -0.931981315
  H   -0.367124195   2.870163959  -0.459259607
  H   -2.034049885   0.323055864  -1.597106120
  H    1.582823890   1.205926462   1.541766288
  H   -1.849570257   1.026778994   1.768351664
  H    1.397586694   0.503483939  -1.822711986
  H   -1.502097810  -0.313324149   0.268172948
  H   -0.231630403  -0.516746072  -1.139666381
  H   -0.087185706   0.033788842   1.498529908
  H    1.182698378  -0.171489777   0.090451869
