21
charge=0 charge_a=0 charge_b=0 selection_a=1-9 selection_b=10-21 scaling=0.85 benchmark_Eint=-0.394 benchmark_unit=kcal/mol group=HBCNO
  C    0.758637197   0.023550615  -1.673194816
  C   -0.566393704   0.006878364  -1.660711411
  C   -1.440060097   1.216859466  -1.578609237
  H    1.336908424  -0.887670150  -1.723592016
  H    1.312793355   0.952355667  -1.622577767
  H   -1.078396835  -0.948776968  -1.702359307
  H   -0.850163797   2.130893050  -1.525982439
  H   -2.082569002   1.174916902  -0.696953750
  H   -2.100506793   1.284418891  -2.445861762
  B    1.282112937  -0.276121479   1.417605204
  H    2.456168190  -0.081470816   1.448578593
  N    0.347408688   0.783845354   1.614107868
  H    0.699782218   1.710662010   1.777931144
  B   -1.063180011   0.589514524   1.561828286
  H   -1.821794040   1.494360977   1.715911407
  N   -1.529247730  -0.735609717   1.312289128
  H   -2.520336193  -0.897490460   1.271149783
  B   -0.648936129  -1.841772058   1.118094290
  H   -1.067026719  -2.936069953   0.904252161
  N    0.750234257  -1.580354785   1.191738361
  H    1.390141726  -2.342884075   1.053457207
