21
charge=0 charge_a=0 charge_b=0 selection_a=1-9 selection_b=10-21 scaling=1.05 benchmark_Eint=-2.035 benchmark_unit=kcal/mol group=HBCNO
  C    0.758637197   0.023550615  -1.673194816
  C   -0.566393704   0.006878364  -1.660711411
  C   -1.440060097   1.216859466  -1.578609237
  H    1.336908424  -0.887670150  -1.723592016
  H    1.312793355   0.952355667  -1.622577767
  H   -1.078396835  -0.948776968  -1.702359307
  H   -0.850163797   2.130893050  -1.525982439
  H   -2.082569002   1.174916902  -0.696953750
  H   -2.100506793   1.284418891  -2.445861762
  B    1.335105020  -0.447392728   1.956444639
  H    2.509160273  -0.252742065   1.987418028
  N    0.400400771   0.612574105   2.152947303
  H    0.752774301   1.539390761   2.316770579
  B   -1.010187928   0.418243275   2.100667721
  H   -1.768801957   1.323089728   2.254750842
  N   -1.476255647  -0.906880966   1.851128563
  H   -2.467344110  -1.068761709   1.809989218
  B   -0.595944046  -2.013043307   1.656933725
  H   -1.014034636  -3.107341202   1.443091596
  N    0.803226340  -1.751626034   1.730577796
  H    1.443133809  -2.514155324   1.592296642
