27
charge=0 charge_a=0 charge_b=0 selection_a=1-15 selection_b=16-27 scaling=1.00 benchmark_Eint=-3.037 benchmark_unit=kcal/mol group=HBCNO
  C   -1.178736587   2.091722321  -1.303691338
  C   -0.276517361   2.742521355  -0.230303102
  C   -0.214998442   1.646035978  -2.409769176
  C    1.161651578   2.229047613  -0.510136777
  C    1.018636057   1.183622014  -1.629695494
  H   -1.678326794   1.215796357  -0.888426129
  H   -1.956689694   2.764819882  -1.661207179
  H   -0.314109365   3.828903462  -0.300603055
  H   -0.609877647   2.480667964   0.772199402
  H   -0.632919125   0.870979368  -3.051459412
  H    0.044531000   2.495150901  -3.047008439
  H    1.792936576   3.050887088  -0.848950339
  H    1.632232289   1.813849027   0.379207457
  H    0.828306634   0.199938832  -1.199923159
  H    1.913116441   1.101586242  -2.246142111
  B   -0.032459525  -2.352009818   0.005578869
  H   -0.007240807  -3.225139174  -0.802720689
  N    1.144367347  -1.950050518   0.705037794
  H    2.008791509  -2.420430344   0.500233366
  B    1.151000771  -0.904788486   1.676027796
  H    2.149671724  -0.585807169   2.239153568
  N   -0.091635997  -0.256005582   1.939274988
  H   -0.111549534   0.485746312   2.617213094
  B   -1.304690253  -0.604592463   1.275314588
  H   -2.325579191  -0.040800427   1.510996647
  N   -1.239443649  -1.656688289   0.313487352
  H   -2.081376456  -1.919289913  -0.168796147
