22
charge=0 charge_a=0 charge_b=0 selection_a=1-8 selection_b=9-22 scaling=2.00 benchmark_Eint=-0.152 benchmark_unit=kcal/mol group=HBCNO
  C    0.279406531  -2.661327971   0.654589880
  C    1.130590950  -2.962638052  -0.575651916
  H   -0.661121394  -2.182650030   0.380783200
  H    0.800227273  -2.000243271   1.347436892
  H    0.031942323  -3.572497204   1.198465794
  H    1.384299064  -2.053464023  -1.120639857
  H    0.607089538  -3.623115379  -1.266519174
  H    2.065646566  -3.449162460  -0.299228098
  B   -1.056807613   4.691783144  -0.284544582
  B   -1.923644080   3.368790499  -0.876245238
  B   -0.044536017   3.828464203   0.755130458
  B   -1.827507431   3.734840920   0.873397527
  B   -0.140552418   3.464052722  -0.993361959
  H   -1.134436108   5.842174587  -0.520640251
  H   -2.801361798   3.295066492  -1.658486764
  H    0.815511977   4.177937090   1.480385644
  H   -2.616882170   3.998789622   1.706971020
  H    0.630274781   3.475494567  -1.884092630
  H   -2.269409723   2.658686479   0.206792304
  H   -0.998942316   2.455264556  -1.201047025
  H   -0.854497619   3.005799470   1.437149264
  H    0.415386465   2.800520851   0.029071225
