25
charge=0 charge_a=0 charge_b=0 selection_a=1-17 selection_b=18-25 scaling=0.90 benchmark_Eint=-1.234 benchmark_unit=kcal/mol group=HBCNO
  C    0.801841991   1.612802083  -3.179964089
  C    0.222936423   0.266971749  -2.727927869
  C   -1.017412082   0.511247955  -1.860415964
  C   -0.169530367  -0.561027599  -3.957160501
  C    1.277862026  -0.494172133  -1.916435046
  H    0.071958638   2.176207780  -3.762672046
  H    1.687222595   1.469065879  -3.800614643
  H    1.088955411   2.222827698  -2.322489569
  H   -1.782459942   1.053148247  -2.417646295
  H   -0.770162045   1.100333533  -0.976433916
  H   -1.455337186  -0.430135198  -1.525587736
  H   -0.920011759  -0.041802664  -4.554557672
  H   -0.584622215  -1.525890303  -3.662720336
  H    0.695276196  -0.748825447  -4.594814538
  H    1.583144013   0.074211853  -1.036785609
  H    2.169999459  -0.682637362  -2.514792008
  H    0.894856467  -1.458682899  -1.579647038
  B   -0.716839198  -1.583130530   1.290194493
  H   -0.213481817  -2.652853681   1.219528541
  H   -1.880831527  -1.432575906   1.133199774
  H   -0.071952777  -0.757038556   0.507844544
  B    0.285790972  -0.186720509   1.629212304
  H   -0.218643375   0.882698723   1.694991632
  H    1.450768995  -0.334100511   1.781990435
  H   -0.358083797  -1.015039984   2.416140022
