14
charge=0 charge_a=0 charge_b=0 selection_a=1-6 selection_b=7-14 scaling=1.10 benchmark_Eint=-1.884 benchmark_unit=kcal/mol group=HBCNO
  C    1.149593679   0.671164585  -2.078172645
  C    0.399091854  -0.033714468  -1.455427262
  C   -0.443462092  -0.813195916  -0.721992139
  C   -1.181025596  -1.484838179  -0.049086842
  H    1.811086921   1.291828249  -2.628428696
  H   -1.831615691  -2.077840254   0.543074754
  B    1.343777587   2.205645686   1.662621693
  H    2.486763309   1.912072375   1.562476752
  H    0.904053799   3.174878978   1.143131937
  H    1.016094969   2.216787565   2.932962818
  B    0.278244247   1.182769390   2.604498844
  H   -0.864319988   1.477358423   2.706403135
  H    0.718497845   0.214612082   3.125516497
  H    0.607188379   1.175205670   1.339282600
