32
charge=0 charge_a=0 charge_b=0 selection_a=1-18 selection_b=19-32 scaling=1.50 benchmark_Eint=-0.893 benchmark_unit=kcal/mol group=HBCNO
  C   -0.769584992   1.307007288  -1.993335969
  C   -1.448901485   0.079827814  -1.845058540
  C   -0.746285699  -1.082716285  -1.678045168
  C    0.667434688  -1.077254565  -1.651641518
  C    1.423707656  -2.258532648  -1.468700617
  C    2.792753420  -2.220513363  -1.447071193
  C    3.472792313  -0.995190021  -1.608881215
  C    2.769046718   0.166758364  -1.783131981
  C    1.354828460   0.162469836  -1.806708897
  C    0.598709609   1.345977259  -1.974601390
  H   -1.336193404   2.218898658  -2.116969294
  H   -2.529368859   0.063383636  -1.855920524
  H   -1.265075204  -2.023463162  -1.554266205
  H    0.899720645  -3.196754937  -1.345408227
  H    3.358448237  -3.130800622  -1.306786253
  H    4.553287255  -0.977508537  -1.591062109
  H    3.287888564   1.108494070  -1.901756773
  H    1.121828383   2.286270748  -2.084930729
  B   -0.328588316   0.014067975   3.353881497
  B   -0.227373459  -1.669805176   3.354315791
  B    0.627819958   0.281034768   4.719618530
  B   -0.831913372  -0.754132450   4.770399248
  B    1.228540650  -0.631816992   3.300936551
  H   -0.882584317   0.758643977   2.632140298
  H   -0.696367522  -2.481497605   2.642619902
  H    0.953848167   1.275765775   5.260716620
  H   -1.852846060  -0.718860874   5.357837159
  H    2.115311608  -0.483534353   2.544038907
  H   -0.479224732  -2.037756654   4.622256284
  H    1.072635380  -1.949943702   3.506199761
  H    0.161567648  -0.564509363   5.651467404
  H    1.715552820  -0.477417113   4.545877502
