18
charge=0 charge_a=0 charge_b=0 selection_a=1-10 selection_b=11-18 scaling=0.80 benchmark_Eint=0.916 benchmark_unit=kcal/mol group=HBCNO
  C   -1.393324969  -1.240456491  -1.837324823
  C   -0.618993753  -0.158801527  -1.743766942
  C    0.831362865  -0.194917660  -1.730339388
  C    1.603601486   0.878581745  -1.557930960
  H   -2.470673918  -1.169274257  -1.826925534
  H   -0.967244598  -2.231398348  -1.924199626
  H   -1.077929560   0.819689367  -1.650539039
  H    1.291022395  -1.170170530  -1.850111668
  H    1.175946875   1.863990876  -1.427559301
  H    2.680696512   0.805462652  -1.538247952
  B   -0.837266597  -0.587239977   1.277467406
  H   -0.948409915  -1.766276222   1.300008190
  H   -1.782020769   0.122150221   1.192988928
  H    0.032824337  -0.257908710   0.359995596
  B    0.757856424   0.126988487   1.376576398
  H    0.862872780   1.306655126   1.356222375
  H    1.705787033  -0.577493271   1.465849970
  H   -0.109962789  -0.208736649   2.302436311
