32
charge=0 charge_a=0 charge_b=0 selection_a=1-18 selection_b=19-32 scaling=0.90 benchmark_Eint=-2.833 benchmark_unit=kcal/mol group=HBCNO
  C   -0.769584992   1.307007288  -1.993335969
  C   -1.448901485   0.079827814  -1.845058540
  C   -0.746285699  -1.082716285  -1.678045168
  C    0.667434688  -1.077254565  -1.651641518
  C    1.423707656  -2.258532648  -1.468700617
  C    2.792753420  -2.220513363  -1.447071193
  C    3.472792313  -0.995190021  -1.608881215
  C    2.769046718   0.166758364  -1.783131981
  C    1.354828460   0.162469836  -1.806708897
  C    0.598709609   1.345977259  -1.974601390
  H   -1.336193404   2.218898658  -2.116969294
  H   -2.529368859   0.063383636  -1.855920524
  H   -1.265075204  -2.023463162  -1.554266205
  H    0.899720645  -3.196754937  -1.345408227
  H    3.358448237  -3.130800622  -1.306786253
  H    4.553287255  -0.977508537  -1.591062109
  H    3.287888564   1.108494070  -1.901756773
  H    1.121828383   2.286270748  -2.084930729
  B   -0.055157938   0.051314927   1.632133745
  B    0.046056919  -1.632558224   1.632568039
  B    0.901250336   0.318281720   2.997870778
  B   -0.558482994  -0.716885498   3.048651496
  B    1.501971028  -0.594570040   1.579188799
  H   -0.609153939   0.795890929   0.910392546
  H   -0.422937144  -2.444250653   0.920872150
  H    1.227278545   1.313012727   3.538968868
  H   -1.579415682  -0.681613922   3.636089407
  H    2.388741986  -0.446287401   0.822291155
  H   -0.205794354  -2.000509702   2.900508532
  H    1.346065758  -1.912696750   1.784452009
  H    0.434998026  -0.527262411   3.929719652
  H    1.988983198  -0.440170161   2.824129750
