21
charge=0 charge_a=0 charge_b=0 selection_a=1-9 selection_b=10-21 scaling=1.00 benchmark_Eint=-2.080 benchmark_unit=kcal/mol group=HBCNO
  C    0.758637197   0.023550615  -1.673194816
  C   -0.566393704   0.006878364  -1.660711411
  C   -1.440060097   1.216859466  -1.578609237
  H    1.336908424  -0.887670150  -1.723592016
  H    1.312793355   0.952355667  -1.622577767
  H   -1.078396835  -0.948776968  -1.702359307
  H   -0.850163797   2.130893050  -1.525982439
  H   -2.082569002   1.174916902  -0.696953750
  H   -2.100506793   1.284418891  -2.445861762
  B    1.321856999  -0.404574916   1.821734780
  H    2.495912252  -0.209924253   1.852708169
  N    0.387152750   0.655391917   2.018237444
  H    0.739526280   1.582208573   2.182060720
  B   -1.023435949   0.461061087   1.965957862
  H   -1.782049978   1.365907540   2.120040983
  N   -1.489503668  -0.864063154   1.716418704
  H   -2.480592131  -1.025943897   1.675279359
  B   -0.609192067  -1.970225495   1.522223866
  H   -1.027282657  -3.064523390   1.308381737
  N    0.789978319  -1.708808222   1.595867937
  H    1.429885788  -2.471337512   1.457586783
