25
charge=0 charge_a=0 charge_b=0 selection_a=1-17 selection_b=18-25 scaling=1.50 benchmark_Eint=-0.492 benchmark_unit=kcal/mol group=HBCNO
  C    0.801841991   1.612802083  -3.179964089
  C    0.222936423   0.266971749  -2.727927869
  C   -1.017412082   0.511247955  -1.860415964
  C   -0.169530367  -0.561027599  -3.957160501
  C    1.277862026  -0.494172133  -1.916435046
  H    0.071958638   2.176207780  -3.762672046
  H    1.687222595   1.469065879  -3.800614643
  H    1.088955411   2.222827698  -2.322489569
  H   -1.782459942   1.053148247  -2.417646295
  H   -0.770162045   1.100333533  -0.976433916
  H   -1.455337186  -0.430135198  -1.525587736
  H   -0.920011759  -0.041802664  -4.554557672
  H   -0.584622215  -1.525890303  -3.662720336
  H    0.695276196  -0.748825447  -4.594814538
  H    1.583144013   0.074211853  -1.036785609
  H    2.169999459  -0.682637362  -2.514792008
  H    0.894856467  -1.458682899  -1.579647038
  B   -0.874687524  -1.997714894   2.797272752
  H   -0.371330143  -3.067438045   2.726606800
  H   -2.038679853  -1.847160270   2.640278033
  H   -0.229801103  -1.171622920   2.014922803
  B    0.127942646  -0.601304873   3.136290563
  H   -0.376491701   0.468114359   3.202069891
  H    1.292920669  -0.748684875   3.289068694
  H   -0.515932123  -1.429624348   3.923218281
