23
charge=0 charge_a=0 charge_b=0 selection_a=1-15 selection_b=16-23 scaling=1.25 benchmark_Eint=-1.420 benchmark_unit=kcal/mol group=HBCNO
  C    1.308240273  -1.131748281  -2.249009151
  C   -0.133447319  -1.422166333  -2.677767461
  C    1.449800908   0.394553193  -2.409319785
  C   -0.915896636  -0.247104830  -2.081705589
  C    0.012756288   0.971127635  -2.271027632
  H    1.438299504  -1.416473410  -1.203189029
  H    2.048653567  -1.684238530  -2.825506852
  H   -0.208062189  -1.405764606  -3.767831054
  H   -0.494782252  -2.392273441  -2.338979478
  H    2.139634756   0.818430477  -1.680754129
  H    1.855159647   0.631493988  -3.392460764
  H   -1.892759909  -0.104486274  -2.541126097
  H   -1.088369573  -0.430636438  -1.019408414
  H   -0.071488492   1.674534975  -1.443917916
  H   -0.260920789   1.519474511  -3.171472181
  B    0.386409607   0.109453847   2.142501496
  H    0.430688197  -1.073758777   2.153098355
  H   -0.632590846   0.694065015   2.290702772
  H    0.973465444   0.549220981   1.060589738
  B    1.866342193   1.015285700   1.894004682
  H    1.825022709   2.198596321   1.878320102
  H    2.881862771   0.426184791   1.740423759
  H    1.276975975   0.580890145   2.981835397
