21
charge=0 charge_a=0 charge_b=0 selection_a=1-9 selection_b=10-21 scaling=0.95 benchmark_Eint=-1.931 benchmark_unit=kcal/mol group=HBCNO
  C    0.758637197   0.023550615  -1.673194816
  C   -0.566393704   0.006878364  -1.660711411
  C   -1.440060097   1.216859466  -1.578609237
  H    1.336908424  -0.887670150  -1.723592016
  H    1.312793355   0.952355667  -1.622577767
  H   -1.078396835  -0.948776968  -1.702359307
  H   -0.850163797   2.130893050  -1.525982439
  H   -2.082569002   1.174916902  -0.696953750
  H   -2.100506793   1.284418891  -2.445861762
  B    1.308608978  -0.361757104   1.687024921
  H    2.482664231  -0.167106441   1.717998310
  N    0.373904729   0.698209729   1.883527585
  H    0.726278259   1.625026385   2.047350861
  B   -1.036683970   0.503878899   1.831248003
  H   -1.795297999   1.408725352   1.985331124
  N   -1.502751689  -0.821245342   1.581708845
  H   -2.493840152  -0.983126085   1.540569500
  B   -0.622440088  -1.927407683   1.387514007
  H   -1.040530678  -3.021705578   1.173671878
  N    0.776730298  -1.665990410   1.461158078
  H    1.416637767  -2.428519700   1.322876924
