27
charge=0 charge_a=0 charge_b=0 selection_a=1-15 selection_b=16-27 scaling=2.00 benchmark_Eint=-0.231 benchmark_unit=kcal/mol group=HBCNO
  C   -1.178736587   2.091722321  -1.303691338
  C   -0.276517361   2.742521355  -0.230303102
  C   -0.214998442   1.646035978  -2.409769176
  C    1.161651578   2.229047613  -0.510136777
  C    1.018636057   1.183622014  -1.629695494
  H   -1.678326794   1.215796357  -0.888426129
  H   -1.956689694   2.764819882  -1.661207179
  H   -0.314109365   3.828903462  -0.300603055
  H   -0.609877647   2.480667964   0.772199402
  H   -0.632919125   0.870979368  -3.051459412
  H    0.044531000   2.495150901  -3.047008439
  H    1.792936576   3.050887088  -0.848950339
  H    1.632232289   1.813849027   0.379207457
  H    0.828306634   0.199938832  -1.199923159
  H    1.913116441   1.101586242  -2.246142111
  B   -0.147444288  -4.640969474   1.548161452
  H   -0.122225570  -5.514098830   0.739861894
  N    1.029382584  -4.239010174   2.247620377
  H    1.893806746  -4.709390000   2.042815949
  B    1.036016008  -3.193748142   3.218610379
  H    2.034686961  -2.874766825   3.781736151
  N   -0.206620760  -2.544965238   3.481857571
  H   -0.226534297  -1.803213344   4.159795677
  B   -1.419675016  -2.893552119   2.817897171
  H   -2.440563954  -2.329760083   3.053579230
  N   -1.354428412  -3.945647945   1.856069935
  H   -2.196361219  -4.208249569   1.373786436
