18
charge=0 charge_a=0 charge_b=0 selection_a=1-10 selection_b=11-18 scaling=1.50 benchmark_Eint=-0.836 benchmark_unit=kcal/mol group=HBCNO
  C   -1.393324969  -1.240456491  -1.837324823
  C   -0.618993753  -0.158801527  -1.743766942
  C    0.831362865  -0.194917660  -1.730339388
  C    1.603601486   0.878581745  -1.557930960
  H   -2.470673918  -1.169274257  -1.826925534
  H   -0.967244598  -2.231398348  -1.924199626
  H   -1.077929560   0.819689367  -1.650539039
  H    1.291022395  -1.170170530  -1.850111668
  H    1.175946875   1.863990876  -1.427559301
  H    2.680696512   0.805462652  -1.538247952
  B   -0.928178001  -0.619203243   3.180938448
  H   -1.039321319  -1.798239488   3.203479232
  H   -1.872932173   0.090186955   3.096459970
  H   -0.058087067  -0.289871976   2.263466638
  B    0.666945020   0.095025221   3.280047440
  H    0.771961376   1.274691860   3.259693417
  H    1.614875629  -0.609456537   3.369321012
  H   -0.200874193  -0.240699915   4.205907353
