18
charge=0 charge_a=0 charge_b=0 selection_a=1-6 selection_b=7-18 scaling=0.85 benchmark_Eint=-0.989 benchmark_unit=kcal/mol group=HBCNO
  C    1.516758584   0.163052868   0.071946005
  C    2.264372723   0.463574510  -0.822029612
  C    3.109416328   0.804133812  -1.835724261
  C    3.855098120   1.104870711  -2.731303470
  H    0.851000021  -0.101502779   0.855866518
  H    4.512605674   1.370032764  -3.520199205
  B   -1.095141320  -1.686263585   1.047075474
  H   -0.838599552  -2.802396538   1.368835619
  N   -1.042757937  -0.610356015   1.987010355
  H   -0.803834690  -0.818858816   2.941241023
  B   -1.381519662   0.736523808   1.648098418
  H   -1.359477774   1.603910543   2.461901898
  N   -1.727834796   0.992006421   0.290170655
  H   -1.948355740   1.935005456   0.020275299
  B   -1.767040855  -0.027237362  -0.708921266
  H   -2.054802635   0.218405204  -1.836152492
  N   -1.450705886  -1.355642890  -0.292113890
  H   -1.472958144  -2.090218269  -0.978139555
