25
charge=0 charge_a=0 charge_b=0 selection_a=1-17 selection_b=18-25 scaling=0.95 benchmark_Eint=-1.477 benchmark_unit=kcal/mol group=HBCNO
  C    0.801841991   1.612802083  -3.179964089
  C    0.222936423   0.266971749  -2.727927869
  C   -1.017412082   0.511247955  -1.860415964
  C   -0.169530367  -0.561027599  -3.957160501
  C    1.277862026  -0.494172133  -1.916435046
  H    0.071958638   2.176207780  -3.762672046
  H    1.687222595   1.469065879  -3.800614643
  H    1.088955411   2.222827698  -2.322489569
  H   -1.782459942   1.053148247  -2.417646295
  H   -0.770162045   1.100333533  -0.976433916
  H   -1.455337186  -0.430135198  -1.525587736
  H   -0.920011759  -0.041802664  -4.554557672
  H   -0.584622215  -1.525890303  -3.662720336
  H    0.695276196  -0.748825447  -4.594814538
  H    1.583144013   0.074211853  -1.036785609
  H    2.169999459  -0.682637362  -2.514792008
  H    0.894856467  -1.458682899  -1.579647038
  B   -0.729993225  -1.617679227   1.415784348
  H   -0.226635844  -2.687402378   1.345118396
  H   -1.893985554  -1.467124603   1.258789629
  H   -0.085106804  -0.791587253   0.633434399
  B    0.272636945  -0.221269206   1.754802159
  H   -0.231797402   0.848150026   1.820581487
  H    1.437614968  -0.368649208   1.907580290
  H   -0.371237824  -1.049588681   2.541729877
