32
charge=0 charge_a=0 charge_b=0 selection_a=1-20 selection_b=21-32 scaling=0.90 benchmark_Eint=-2.209 benchmark_unit=kcal/mol group=HBCNO
  C    1.121880000   0.654200000  -0.718880000
  C    2.176960000  -0.249930000  -0.046960000
  C    1.870590000  -0.433200000   1.444760000
  C    2.127750000  -1.620420000  -0.734500000
  C    3.582260000   0.341330000  -0.211130000
  C    0.961160000   2.058900000  -0.144800000
  H    0.159840000   0.143130000  -0.671540000
  H    1.371490000   0.730120000  -1.780760000
  H    1.941720000   0.507650000   1.989290000
  H    0.867080000  -0.832270000   1.591990000
  H    2.577990000  -1.129490000   1.897080000
  H    2.340800000  -1.530700000  -1.800790000
  H    1.141480000  -2.073730000  -0.627130000
  H    2.861040000  -2.302530000  -0.302100000
  H    3.821650000   0.493110000  -1.264870000
  H    3.677850000   1.300440000   0.296710000
  H    4.333220000  -0.329160000   0.208930000
  H    0.640880000   2.035770000   0.895960000
  H    1.887090000   2.630940000  -0.197230000
  H    0.204220000   2.610090000  -0.702140000
  B   -1.689072142  -1.269457965   0.885014990
  H   -1.371242142  -2.195897965   1.560944990
  N   -1.783932142   0.047642035   1.423994990
  H   -1.575032142   0.183902035   2.397764990
  B   -2.154162142   1.181722035   0.641674990
  H   -2.223402142   2.269492035   1.118384990
  N   -2.435372142   0.953202035  -0.738305010
  H   -2.695722142   1.737122035  -1.311085010
  B   -2.359312142  -0.336397965  -1.343015010
  H   -2.595782142  -0.496317965  -2.498305010
  N   -1.982962142  -1.426327965  -0.502025010
  H   -1.919512142  -2.344667965  -0.905845010
