25
charge=0 charge_a=0 charge_b=0 selection_a=1-17 selection_b=18-25 scaling=0.80 benchmark_Eint=0.243 benchmark_unit=kcal/mol group=HBCNO
  C    0.801841991   1.612802083  -3.179964089
  C    0.222936423   0.266971749  -2.727927869
  C   -1.017412082   0.511247955  -1.860415964
  C   -0.169530367  -0.561027599  -3.957160501
  C    1.277862026  -0.494172133  -1.916435046
  H    0.071958638   2.176207780  -3.762672046
  H    1.687222595   1.469065879  -3.800614643
  H    1.088955411   2.222827698  -2.322489569
  H   -1.782459942   1.053148247  -2.417646295
  H   -0.770162045   1.100333533  -0.976433916
  H   -1.455337186  -0.430135198  -1.525587736
  H   -0.920011759  -0.041802664  -4.554557672
  H   -0.584622215  -1.525890303  -3.662720336
  H    0.695276196  -0.748825447  -4.594814538
  H    1.583144013   0.074211853  -1.036785609
  H    2.169999459  -0.682637362  -2.514792008
  H    0.894856467  -1.458682899  -1.579647038
  B   -0.690531143  -1.514033136   1.039014783
  H   -0.187173762  -2.583756287   0.968348831
  H   -1.854523472  -1.363478512   0.882020064
  H   -0.045644722  -0.687941162   0.256664834
  B    0.312099027  -0.117623115   1.378032594
  H   -0.192335320   0.951796117   1.443811922
  H    1.477077050  -0.265003117   1.530810725
  H   -0.331775742  -0.945942590   2.164960312
