29
charge=0 charge_a=0 charge_b=0 selection_a=1-17 selection_b=18-29 scaling=1.00 benchmark_Eint=-3.496 benchmark_unit=kcal/mol group=HBCNO
  C    0.552917090  -3.112985876   1.095717468
  C   -0.124032667  -2.627275651  -0.182232421
  C    0.761380811  -1.701189493  -1.011049200
  C    0.087090103  -1.189185457  -2.280555115
  C    0.974495220  -0.247758346  -3.088947413
  H   -0.097505821  -3.774113003   1.668783695
  H    0.823662134  -2.273564030   1.737094362
  H    1.468286157  -3.662308381   0.870279626
  H   -1.048602102  -2.103046346   0.071017295
  H   -0.418632028  -3.485908435  -0.791549990
  H    1.683754998  -2.226373429  -1.278165455
  H    1.065362447  -0.850107972  -0.397001579
  H   -0.838610784  -0.675801296  -2.009819566
  H   -0.207646546  -2.039830130  -2.900925632
  H    1.252804094   0.627207087  -2.500540248
  H    0.471979771   0.102811514  -3.990686649
  H    1.896596136  -0.744236553  -3.395050223
  B    0.787169655   2.157778656   0.116405948
  H    1.446988184   2.871981334  -0.569712636
  N   -0.550029022   1.811725968  -0.238773731
  H   -0.930520791   2.181399213  -1.092528791
  B   -1.364549825   0.949799023   0.553647391
  H   -2.473175716   0.668024357   0.225542773
  N   -0.789409218   0.434406688   1.752776970
  H   -1.341328659  -0.181118890   2.324477021
  B    0.540526571   0.739017034   2.168110567
  H    0.997413445   0.286656148   3.169513537
  N    1.301466387   1.604274841   1.326705305
  H    2.242907191   1.830787614   1.596532151
