32
charge=0 charge_a=0 charge_b=0 selection_a=1-20 selection_b=21-32 scaling=1.25 benchmark_Eint=-1.890 benchmark_unit=kcal/mol group=HBCNO
  C    1.121880000   0.654200000  -0.718880000
  C    2.176960000  -0.249930000  -0.046960000
  C    1.870590000  -0.433200000   1.444760000
  C    2.127750000  -1.620420000  -0.734500000
  C    3.582260000   0.341330000  -0.211130000
  C    0.961160000   2.058900000  -0.144800000
  H    0.159840000   0.143130000  -0.671540000
  H    1.371490000   0.730120000  -1.780760000
  H    1.941720000   0.507650000   1.989290000
  H    0.867080000  -0.832270000   1.591990000
  H    2.577990000  -1.129490000   1.897080000
  H    2.340800000  -1.530700000  -1.800790000
  H    1.141480000  -2.073730000  -0.627130000
  H    2.861040000  -2.302530000  -0.302100000
  H    3.821650000   0.493110000  -1.264870000
  H    3.677850000   1.300440000   0.296710000
  H    4.333220000  -0.329160000   0.208930000
  H    0.640880000   2.035770000   0.895960000
  H    1.887090000   2.630940000  -0.197230000
  H    0.204220000   2.610090000  -0.702140000
  B   -2.694124644  -1.337225088   0.915832524
  H   -2.376294644  -2.263665088   1.591762524
  N   -2.788984644  -0.020125088   1.454812524
  H   -2.580084644   0.116134912   2.428582524
  B   -3.159214644   1.113954912   0.672492524
  H   -3.228454644   2.201724912   1.149202524
  N   -3.440424644   0.885434912  -0.707487476
  H   -3.700774644   1.669354912  -1.280267476
  B   -3.364364644  -0.404165088  -1.312197476
  H   -3.600834644  -0.564085088  -2.467487476
  N   -2.988014644  -1.494095088  -0.471207476
  H   -2.924564644  -2.412435088  -0.875027476
