18
charge=0 charge_a=0 charge_b=0 selection_a=1-10 selection_b=11-18 scaling=0.85 benchmark_Eint=-0.924 benchmark_unit=kcal/mol group=HBCNO
  C   -1.393324969  -1.240456491  -1.837324823
  C   -0.618993753  -0.158801527  -1.743766942
  C    0.831362865  -0.194917660  -1.730339388
  C    1.603601486   0.878581745  -1.557930960
  H   -2.470673918  -1.169274257  -1.826925534
  H   -0.967244598  -2.231398348  -1.924199626
  H   -1.077929560   0.819689367  -1.650539039
  H    1.291022395  -1.170170530  -1.850111668
  H    1.175946875   1.863990876  -1.427559301
  H    2.680696512   0.805462652  -1.538247952
  B   -0.843760269  -0.589523068   1.413429623
  H   -0.954903587  -1.768559313   1.435970407
  H   -1.788514441   0.119867130   1.328951145
  H    0.026330665  -0.260191801   0.495957813
  B    0.751362752   0.124705396   1.512538615
  H    0.856379108   1.304372035   1.492184592
  H    1.699293361  -0.579776362   1.601812187
  H   -0.116456461  -0.211019740   2.438398528
