18
charge=0 charge_a=0 charge_b=0 selection_a=1-10 selection_b=11-18 scaling=1.10 benchmark_Eint=-2.330 benchmark_unit=kcal/mol group=HBCNO
  C   -1.393324969  -1.240456491  -1.837324823
  C   -0.618993753  -0.158801527  -1.743766942
  C    0.831362865  -0.194917660  -1.730339388
  C    1.603601486   0.878581745  -1.557930960
  H   -2.470673918  -1.169274257  -1.826925534
  H   -0.967244598  -2.231398348  -1.924199626
  H   -1.077929560   0.819689367  -1.650539039
  H    1.291022395  -1.170170530  -1.850111668
  H    1.175946875   1.863990876  -1.427559301
  H    2.680696512   0.805462652  -1.538247952
  B   -0.876228627  -0.600938520   2.093240710
  H   -0.987371945  -1.779974765   2.115781494
  H   -1.820982799   0.108451678   2.008762232
  H   -0.006137693  -0.271607253   1.175768900
  B    0.718894394   0.113289944   2.192349702
  H    0.823910750   1.292956583   2.171995679
  H    1.666825003  -0.591191814   2.281623274
  H   -0.148924819  -0.222435192   3.118209615
