18
charge=0 charge_a=0 charge_b=0 selection_a=1-6 selection_b=7-18 scaling=1.25 benchmark_Eint=-1.491 benchmark_unit=kcal/mol group=HBCNO
  C    1.516758584   0.163052868   0.071946005
  C    2.264372723   0.463574510  -0.822029612
  C    3.109416328   0.804133812  -1.835724261
  C    3.855098120   1.104870711  -2.731303470
  H    0.851000021  -0.101502779   0.855866518
  H    4.512605674   1.370032764  -3.520199205
  B   -2.032185424  -1.905627647   1.502549002
  H   -1.775643656  -3.021760600   1.824309147
  N   -1.979802041  -0.829720077   2.442483883
  H   -1.740878794  -1.038222878   3.396714551
  B   -2.318563766   0.517159746   2.103571946
  H   -2.296521878   1.384546481   2.917375426
  N   -2.664878900   0.772642359   0.745644183
  H   -2.885399844   1.715641394   0.475748827
  B   -2.704084959  -0.246601424  -0.253447738
  H   -2.991846739  -0.000958858  -1.380678964
  N   -2.387749990  -1.575006952   0.163359638
  H   -2.410002248  -2.309582331  -0.522666027
