25
charge=0 charge_a=0 charge_b=0 selection_a=1-17 selection_b=18-25 scaling=2.00 benchmark_Eint=-0.127 benchmark_unit=kcal/mol group=HBCNO
  C    0.801841991   1.612802083  -3.179964089
  C    0.222936423   0.266971749  -2.727927869
  C   -1.017412082   0.511247955  -1.860415964
  C   -0.169530367  -0.561027599  -3.957160501
  C    1.277862026  -0.494172133  -1.916435046
  H    0.071958638   2.176207780  -3.762672046
  H    1.687222595   1.469065879  -3.800614643
  H    1.088955411   2.222827698  -2.322489569
  H   -1.782459942   1.053148247  -2.417646295
  H   -0.770162045   1.100333533  -0.976433916
  H   -1.455337186  -0.430135198  -1.525587736
  H   -0.920011759  -0.041802664  -4.554557672
  H   -0.584622215  -1.525890303  -3.662720336
  H    0.695276196  -0.748825447  -4.594814538
  H    1.583144013   0.074211853  -1.036785609
  H    2.169999459  -0.682637362  -2.514792008
  H    0.894856467  -1.458682899  -1.579647038
  B   -1.006227795  -2.343201864   4.053171302
  H   -0.502870414  -3.412925015   3.982505350
  H   -2.170220124  -2.192647240   3.896176583
  H   -0.361341374  -1.517109890   3.270821353
  B   -0.003597625  -0.946791843   4.392189113
  H   -0.508031972   0.122627389   4.457968441
  H    1.161380398  -1.094171845   4.544967244
  H   -0.647472394  -1.775111318   5.179116831
