32
charge=0 charge_a=0 charge_b=0 selection_a=1-20 selection_b=21-32 scaling=2.00 benchmark_Eint=-0.218 benchmark_unit=kcal/mol group=HBCNO
  C    1.121880000   0.654200000  -0.718880000
  C    2.176960000  -0.249930000  -0.046960000
  C    1.870590000  -0.433200000   1.444760000
  C    2.127750000  -1.620420000  -0.734500000
  C    3.582260000   0.341330000  -0.211130000
  C    0.961160000   2.058900000  -0.144800000
  H    0.159840000   0.143130000  -0.671540000
  H    1.371490000   0.730120000  -1.780760000
  H    1.941720000   0.507650000   1.989290000
  H    0.867080000  -0.832270000   1.591990000
  H    2.577990000  -1.129490000   1.897080000
  H    2.340800000  -1.530700000  -1.800790000
  H    1.141480000  -2.073730000  -0.627130000
  H    2.861040000  -2.302530000  -0.302100000
  H    3.821650000   0.493110000  -1.264870000
  H    3.677850000   1.300440000   0.296710000
  H    4.333220000  -0.329160000   0.208930000
  H    0.640880000   2.035770000   0.895960000
  H    1.887090000   2.630940000  -0.197230000
  H    0.204220000   2.610090000  -0.702140000
  B   -4.847808578  -1.482440351   0.981870097
  H   -4.529978578  -2.408880351   1.657800097
  N   -4.942668578  -0.165340351   1.520850097
  H   -4.733768578  -0.029080351   2.494620097
  B   -5.312898578   0.968739649   0.738530097
  H   -5.382138578   2.056509649   1.215240097
  N   -5.594108578   0.740219649  -0.641449903
  H   -5.854458578   1.524139649  -1.214229903
  B   -5.518048578  -0.549380351  -1.246159903
  H   -5.754518578  -0.709300351  -2.401449903
  N   -5.141698578  -1.639310351  -0.405169903
  H   -5.078248578  -2.557650351  -0.808989903
