29
charge=0 charge_a=0 charge_b=0 selection_a=1-17 selection_b=18-29 scaling=0.85 benchmark_Eint=-0.827 benchmark_unit=kcal/mol group=HBCNO
  C    0.552917090  -3.112985876   1.095717468
  C   -0.124032667  -2.627275651  -0.182232421
  C    0.761380811  -1.701189493  -1.011049200
  C    0.087090103  -1.189185457  -2.280555115
  C    0.974495220  -0.247758346  -3.088947413
  H   -0.097505821  -3.774113003   1.668783695
  H    0.823662134  -2.273564030   1.737094362
  H    1.468286157  -3.662308381   0.870279626
  H   -1.048602102  -2.103046346   0.071017295
  H   -0.418632028  -3.485908435  -0.791549990
  H    1.683754998  -2.226373429  -1.278165455
  H    1.065362447  -0.850107972  -0.397001579
  H   -0.838610784  -0.675801296  -2.009819566
  H   -0.207646546  -2.039830130  -2.900925632
  H    1.252804094   0.627207087  -2.500540248
  H    0.471979771   0.102811514  -3.990686649
  H    1.896596136  -0.744236553  -3.395050223
  B    0.843335524   1.793975653  -0.126121279
  H    1.503154053   2.508178331  -0.812239863
  N   -0.493863153   1.447922965  -0.481300958
  H   -0.874354922   1.817596210  -1.335056018
  B   -1.308383956   0.585996020   0.311120164
  H   -2.417009847   0.304221354  -0.016984454
  N   -0.733243349   0.070603685   1.510249743
  H   -1.285162790  -0.544921893   2.081949794
  B    0.596692440   0.375214031   1.925583340
  H    1.053579314  -0.077146855   2.926986310
  N    1.357632256   1.240471838   1.084178078
  H    2.299073060   1.466984611   1.354004924
