22
charge=0 charge_a=0 charge_b=0 selection_a=1-8 selection_b=9-22 scaling=1.00 benchmark_Eint=-1.965 benchmark_unit=kcal/mol group=HBCNO
  C    0.279406531  -2.661327971   0.654589880
  C    1.130590950  -2.962638052  -0.575651916
  H   -0.661121394  -2.182650030   0.380783200
  H    0.800227273  -2.000243271   1.347436892
  H    0.031942323  -3.572497204   1.198465794
  H    1.384299064  -2.053464023  -1.120639857
  H    0.607089538  -3.623115379  -1.266519174
  H    2.065646566  -3.449162460  -0.299228098
  B   -0.417381019   2.215107621  -0.233394045
  B   -1.284217486   0.892114976  -0.825094701
  B    0.594890577   1.351788680   0.806280995
  B   -1.188080837   1.258165397   0.924548064
  B    0.498874176   0.987377199  -0.942211422
  H   -0.495009514   3.365499064  -0.469489714
  H   -2.161935204   0.818390969  -1.607336227
  H    1.454938571   1.701261567   1.531536181
  H   -1.977455576   1.522114099   1.758121557
  H    1.269701375   0.998819044  -1.832942093
  H   -1.629983129   0.182010956   0.257942841
  H   -0.359515722  -0.021410967  -1.149896488
  H   -0.215071025   0.529123947   1.488299801
  H    1.054813059   0.323845328   0.080221762
