18
charge=0 charge_a=0 charge_b=0 selection_a=1-6 selection_b=7-18 scaling=0.90 benchmark_Eint=-1.747 benchmark_unit=kcal/mol group=HBCNO
  C    1.516758584   0.163052868   0.071946005
  C    2.264372723   0.463574510  -0.822029612
  C    3.109416328   0.804133812  -1.835724261
  C    3.855098120   1.104870711  -2.731303470
  H    0.851000021  -0.101502779   0.855866518
  H    4.512605674   1.370032764  -3.520199205
  B   -1.212271833  -1.713684093   1.104009665
  H   -0.955730065  -2.829817046   1.425769810
  N   -1.159888450  -0.637776523   2.043944546
  H   -0.920965203  -0.846279324   2.998175214
  B   -1.498650175   0.709103300   1.705032609
  H   -1.476608287   1.576490035   2.518836089
  N   -1.844965309   0.964585913   0.347104846
  H   -2.065486253   1.907584948   0.077209490
  B   -1.884171368  -0.054657870  -0.651987075
  H   -2.171933148   0.190984696  -1.779218301
  N   -1.567836399  -1.383063398  -0.235179699
  H   -1.590088657  -2.117638777  -0.921205364
