14
charge=0 charge_a=0 charge_b=0 selection_a=1-6 selection_b=7-14 scaling=2.00 benchmark_Eint=-0.194 benchmark_unit=kcal/mol group=HBCNO
  C    1.149593679   0.671164585  -2.078172645
  C    0.399091854  -0.033714468  -1.455427262
  C   -0.443462092  -0.813195916  -0.721992139
  C   -1.181025596  -1.484838179  -0.049086842
  H    1.811086921   1.291828249  -2.628428696
  H   -1.831615691  -2.077840254   0.543074754
  B    1.872312379   3.548920419   3.706636239
  H    3.015298101   3.255347108   3.606491298
  H    1.432588591   4.518153711   3.187146483
  H    1.544629761   3.560062298   4.976977364
  B    0.806779039   2.526044123   4.648513390
  H   -0.335785196   2.820633156   4.750417681
  H    1.247032637   1.557886815   5.169531043
  H    1.135723171   2.518480403   3.383297146
