32
charge=0 charge_a=0 charge_b=0 selection_a=1-18 selection_b=19-32 scaling=2.00 benchmark_Eint=-0.140 benchmark_unit=kcal/mol group=HBCNO
  C   -0.769584992   1.307007288  -1.993335969
  C   -1.448901485   0.079827814  -1.845058540
  C   -0.746285699  -1.082716285  -1.678045168
  C    0.667434688  -1.077254565  -1.651641518
  C    1.423707656  -2.258532648  -1.468700617
  C    2.792753420  -2.220513363  -1.447071193
  C    3.472792313  -0.995190021  -1.608881215
  C    2.769046718   0.166758364  -1.783131981
  C    1.354828460   0.162469836  -1.806708897
  C    0.598709609   1.345977259  -1.974601390
  H   -1.336193404   2.218898658  -2.116969294
  H   -2.529368859   0.063383636  -1.855920524
  H   -1.265075204  -2.023463162  -1.554266205
  H    0.899720645  -3.196754937  -1.345408227
  H    3.358448237  -3.130800622  -1.306786253
  H    4.553287255  -0.977508537  -1.591062109
  H    3.287888564   1.108494070  -1.901756773
  H    1.121828383   2.286270748  -2.084930729
  B   -0.556446964  -0.016971153   4.788671290
  B   -0.455232107  -1.700844304   4.789105584
  B    0.399961310   0.249995640   6.154408323
  B   -1.059772020  -0.785171578   6.205189041
  B    1.000682002  -0.662856120   4.735726344
  H   -1.110442965   0.727604849   4.066930091
  H   -0.924226170  -2.512536733   4.077409695
  H    0.725989519   1.244726647   6.695506413
  H   -2.080704708  -0.749900002   6.792626952
  H    1.887452960  -0.514573481   3.978828700
  H   -0.707083380  -2.068795782   6.057046077
  H    0.844776732  -1.980982830   4.940989554
  H   -0.066291000  -0.595548491   7.086257197
  H    1.487694172  -0.508456241   5.980667295
