32
charge=0 charge_a=0 charge_b=0 selection_a=1-20 selection_b=21-32 scaling=1.05 benchmark_Eint=-2.926 benchmark_unit=kcal/mol group=HBCNO
  C    1.121880000   0.654200000  -0.718880000
  C    2.176960000  -0.249930000  -0.046960000
  C    1.870590000  -0.433200000   1.444760000
  C    2.127750000  -1.620420000  -0.734500000
  C    3.582260000   0.341330000  -0.211130000
  C    0.961160000   2.058900000  -0.144800000
  H    0.159840000   0.143130000  -0.671540000
  H    1.371490000   0.730120000  -1.780760000
  H    1.941720000   0.507650000   1.989290000
  H    0.867080000  -0.832270000   1.591990000
  H    2.577990000  -1.129490000   1.897080000
  H    2.340800000  -1.530700000  -1.800790000
  H    1.141480000  -2.073730000  -0.627130000
  H    2.861040000  -2.302530000  -0.302100000
  H    3.821650000   0.493110000  -1.264870000
  H    3.677850000   1.300440000   0.296710000
  H    4.333220000  -0.329160000   0.208930000
  H    0.640880000   2.035770000   0.895960000
  H    1.887090000   2.630940000  -0.197230000
  H    0.204220000   2.610090000  -0.702140000
  B   -2.119808929  -1.298501018   0.898222505
  H   -1.801978929  -2.224941018   1.574152505
  N   -2.214668929   0.018598982   1.437202505
  H   -2.005768929   0.154858982   2.410972505
  B   -2.584898929   1.152678982   0.654882505
  H   -2.654138929   2.240448982   1.131592505
  N   -2.866108929   0.924158982  -0.725097495
  H   -3.126458929   1.708078982  -1.297877495
  B   -2.790048929  -0.365441018  -1.329807495
  H   -3.026518929  -0.525361018  -2.485097495
  N   -2.413698929  -1.455371018  -0.488817495
  H   -2.350248929  -2.373711018  -0.892637495
