27
charge=0 charge_a=0 charge_b=0 selection_a=1-15 selection_b=16-27 scaling=1.05 benchmark_Eint=-4.238 benchmark_unit=kcal/mol group=HBCNO
  C   -0.763015818   0.175163116  -1.575809991
  C   -1.195413844  -1.218132191  -1.937896546
  C    0.529757140   0.615763472  -1.855180926
  C    0.931314772   1.904992781  -1.533174238
  C    0.042650055   2.780492493  -0.921018278
  C   -1.247331717   2.353329242  -0.634331565
  C   -1.642885791   1.061958841  -0.959051130
  H   -0.377723167  -1.926777840  -1.817256836
  H   -1.523524832  -1.268328332  -2.978143458
  H   -2.023024818  -1.548885092  -1.313539329
  H    1.232122623  -0.062922803  -2.320446165
  H    1.940882087   2.223060542  -1.752545337
  H    0.353711668   3.784175863  -0.667739154
  H   -1.945015256   3.022200062  -0.150174855
  H   -2.645886474   0.733932816  -0.721160477
  B   -0.637322844  -0.171850517   2.164476403
  H   -1.450081388   0.559591799   2.634211636
  N   -0.934280222  -1.547500062   1.915130702
  H   -1.848611602  -1.891796359   2.150379912
  B    0.010050355  -2.451019918   1.345942989
  H   -0.265721301  -3.591967174   1.143411679
  N    1.296481260  -1.928499673   1.022491937
  H    1.979747016  -2.545686784   0.619820135
  B    1.656859041  -0.563552944   1.246384366
  H    2.737086044  -0.155431887   0.958660866
  N    0.673874240   0.278617553   1.839661650
  H    0.890823350   1.251408033   1.966710575
