21
charge=0 charge_a=0 charge_b=0 selection_a=1-9 selection_b=10-21 scaling=0.80 benchmark_Eint=1.545 benchmark_unit=kcal/mol group=HBCNO
  C    0.758637197   0.023550615  -1.673194816
  C   -0.566393704   0.006878364  -1.660711411
  C   -1.440060097   1.216859466  -1.578609237
  H    1.336908424  -0.887670150  -1.723592016
  H    1.312793355   0.952355667  -1.622577767
  H   -1.078396835  -0.948776968  -1.702359307
  H   -0.850163797   2.130893050  -1.525982439
  H   -2.082569002   1.174916902  -0.696953750
  H   -2.100506793   1.284418891  -2.445861762
  B    1.268864916  -0.233303667   1.282895346
  H    2.442920169  -0.038653004   1.313868735
  N    0.334160667   0.826663166   1.479398010
  H    0.686534197   1.753479822   1.643221286
  B   -1.076428032   0.632332336   1.427118428
  H   -1.835042061   1.537178789   1.581201549
  N   -1.542495751  -0.692791905   1.177579270
  H   -2.533584214  -0.854672648   1.136439925
  B   -0.662184150  -1.798954246   0.983384432
  H   -1.080274740  -2.893252141   0.769542303
  N    0.736986236  -1.537536973   1.057028503
  H    1.376893705  -2.300066263   0.918747349
