7
charge=0 charge_a=0 charge_b=0 selection_a=1-2 selection_b=3-7 scaling=1.10 benchmark_Eint=-0.913 benchmark_unit=kcal/mol group=HBCNO
  N   -0.815520145   1.197894572   0.002764702
  N   -1.109218478   1.826131120   0.843341862
  N    1.298050350  -1.775357505   0.625296309
  N    1.143746034  -1.699467903  -0.492716158
  C    0.963433759  -1.606788014  -1.766748348
  H    0.342984157  -0.805752750  -2.124874310
  H    1.442022310  -2.333731529  -2.397392599
