16
charge=0 charge_a=0 charge_b=0 selection_a=1-7 selection_b=8-16 scaling=0.85 benchmark_Eint=-2.239 benchmark_unit=kcal/mol group=HBCNO
  N   -2.091322493  -1.130784588   0.426987232
  N   -2.280288301  -0.037486621   0.212632946
  N   -2.495054150   1.162025764   0.111358494
  C   -2.418395406   1.718923164  -1.250951691
  H   -2.663040880   2.772007958  -1.169414016
  H   -3.138663654   1.238121668  -1.914637051
  H   -1.412571636   1.608863299  -1.656729311
  N    0.684182893   0.209304232   1.648597695
  C    0.351161078   0.971077456   0.611682545
  N    0.386848985   0.593652993  -0.665046824
  C    0.810430987  -0.652692219  -0.861489762
  N    1.178979401  -1.502313000   0.091803336
  C    1.086096990  -1.018218171   1.327125239
  H    0.012511497   1.977462999   0.822566033
  H    0.858472059  -1.004312101  -1.884989897
  H    1.362340728  -1.677841409   2.140474885
