11
charge=0 charge_a=0 charge_b=0 selection_a=1-2 selection_b=3-11 scaling=1.50 benchmark_Eint=-0.234 benchmark_unit=kcal/mol group=HBCNO
  N    0.255553581  -0.512226721  -3.155261275
  N    0.028962869  -0.372372311  -2.098496392
  N   -0.933831181  -0.525341933   2.861406272
  C    0.392402978  -0.427848568   2.887309287
  N    1.090759463   0.680826691   2.657626100
  C    0.350301190   1.751267482   2.383095570
  N   -0.978355352   1.778598284   2.327415785
  C   -1.564251158   0.610166009   2.574313720
  H    0.951338275  -1.327568633   3.114423689
  H    0.873886851   2.679280934   2.187704660
  H   -2.646519767   0.581005163   2.538711840
