16
charge=0 charge_a=0 charge_b=0 selection_a=1-7 selection_b=8-16 scaling=0.90 benchmark_Eint=-1.597 benchmark_unit=kcal/mol group=HBCNO
  C    0.601732102  -0.573573100  -2.278302371
  N   -0.432641696   0.209895957  -1.603769760
  H    1.346160208  -1.027319019  -1.614532180
  H    1.127701599   0.063665522  -2.988297811
  H    0.130271716  -1.371483959  -2.850918037
  H   -0.030390628   0.975313147  -1.080762630
  H   -0.956261746  -0.357878001  -0.952124221
  N   -0.576078479  -0.830357309   1.611266002
  C    0.492459026  -1.521279203   1.221333429
  N    1.683943097  -1.004514964   0.934320490
  C    1.755387646   0.317989858   1.056564355
  N    0.759062690   1.113969000   1.437320980
  C   -0.380608136   0.482297183   1.706341437
  H    0.381882690  -2.594809485   1.128205679
  H    2.703995015   0.787021795   0.825196508
  H   -1.221193313   1.087791559   2.022571841
