16
charge=0 charge_a=0 charge_b=0 selection_a=1-7 selection_b=8-16 scaling=0.80 benchmark_Eint=0.142 benchmark_unit=kcal/mol group=HBCNO
  N   -2.091322493  -1.130784588   0.426987232
  N   -2.280288301  -0.037486621   0.212632946
  N   -2.495054150   1.162025764   0.111358494
  C   -2.418395406   1.718923164  -1.250951691
  H   -2.663040880   2.772007958  -1.169414016
  H   -3.138663654   1.238121668  -1.914637051
  H   -1.412571636   1.608863299  -1.656729311
  N    0.555946891   0.238228295   1.626826448
  C    0.222925076   1.000001519   0.589911298
  N    0.258612983   0.622577056  -0.686818071
  C    0.682194985  -0.623768156  -0.883261009
  N    1.050743399  -1.473388937   0.070032089
  C    0.957860988  -0.989294108   1.305353992
  H   -0.115724505   2.006387062   0.800794786
  H    0.730236057  -0.975388038  -1.906761144
  H    1.234104726  -1.648917346   2.118703638
