11
charge=0 charge_a=0 charge_b=0 selection_a=1-2 selection_b=3-11 scaling=0.95 benchmark_Eint=-1.223 benchmark_unit=kcal/mol group=HBCNO
  N    0.255553581  -0.512226721  -3.155261275
  N    0.028962869  -0.372372311  -2.098496392
  N   -0.789898525  -0.901326318   1.048067489
  C    0.536335634  -0.803832953   1.073970504
  N    1.234692119   0.304842306   0.844287317
  C    0.494233846   1.375283097   0.569756787
  N   -0.834422696   1.402613899   0.514077002
  C   -1.420318502   0.234181624   0.760974937
  H    1.095270931  -1.703553018   1.301084906
  H    1.017819507   2.303296549   0.374365877
  H   -2.502587111   0.205020778   0.725373057
