16
charge=0 charge_a=0 charge_b=0 selection_a=1-7 selection_b=8-16 scaling=1.25 benchmark_Eint=-2.445 benchmark_unit=kcal/mol group=HBCNO
  N   -2.091322493  -1.130784588   0.426987232
  N   -2.280288301  -0.037486621   0.212632946
  N   -2.495054150   1.162025764   0.111358494
  C   -2.418395406   1.718923164  -1.250951691
  H   -2.663040880   2.772007958  -1.169414016
  H   -3.138663654   1.238121668  -1.914637051
  H   -1.412571636   1.608863299  -1.656729311
  N    1.710070907  -0.022088271   1.822767673
  C    1.377049092   0.739684953   0.785852523
  N    1.412736999   0.362260490  -0.490876846
  C    1.836319001  -0.884084722  -0.687319784
  N    2.204867415  -1.733705503   0.265973314
  C    2.111985004  -1.249610674   1.501295217
  H    1.038399511   1.746070496   0.996736011
  H    1.884360073  -1.235704604  -1.710819919
  H    2.388228742  -1.909233912   2.314644863
