7
charge=0 charge_a=0 charge_b=0 selection_a=1-2 selection_b=3-7 scaling=0.95 benchmark_Eint=-1.000 benchmark_unit=kcal/mol group=HBCNO
  N   -0.815520145   1.197894572   0.002764702
  N   -1.109218478   1.826131120   0.843341862
  N    1.068312935  -1.423826141   0.734139219
  N    0.914008619  -1.347936539  -0.383873248
  C    0.733696344  -1.255256650  -1.657905438
  H    0.113246742  -0.454221386  -2.016031400
  H    1.212284895  -1.982200165  -2.288549689
