9
charge=0 charge_a=0 charge_b=0 selection_a=1-2 selection_b=3-9 scaling=2.00 benchmark_Eint=-0.059 benchmark_unit=kcal/mol group=HBCNO
  N   -1.386143670   0.963165179  -0.996258772
  N   -1.915525853   1.649660226  -0.335922376
  C    4.009228078  -3.367643061   1.823465767
  N    3.202582764  -2.284844963   1.261047278
  H    4.714616884  -3.832192853   1.124350314
  H    3.349038547  -4.147610281   2.201071131
  H    4.578338024  -2.988509247   2.671488976
  H    2.652529105  -2.611181427   0.478148475
  H    3.791413892  -1.540273072   0.912553756
