16
charge=0 charge_a=0 charge_b=0 selection_a=1-7 selection_b=8-16 scaling=0.85 benchmark_Eint=-0.423 benchmark_unit=kcal/mol group=HBCNO
  C    0.601732102  -0.573573100  -2.278302371
  N   -0.432641696   0.209895957  -1.603769760
  H    1.346160208  -1.027319019  -1.614532180
  H    1.127701599   0.063665522  -2.988297811
  H    0.130271716  -1.371483959  -2.850918037
  H   -0.030390628   0.975313147  -1.080762630
  H   -0.956261746  -0.357878001  -0.952124221
  N   -0.599228497  -0.827860637   1.470341893
  C    0.469309008  -1.518782531   1.080409320
  N    1.660793079  -1.002018292   0.793396381
  C    1.732237628   0.320486530   0.915640246
  N    0.735912672   1.116465672   1.296396871
  C   -0.403758154   0.484793855   1.565417328
  H    0.358732672  -2.592312813   0.987281570
  H    2.680844997   0.789518467   0.684272399
  H   -1.244343331   1.090288231   1.881647732
