7
charge=0 charge_a=0 charge_b=0 selection_a=1-2 selection_b=3-7 scaling=1.25 benchmark_Eint=-0.595 benchmark_unit=kcal/mol group=HBCNO
  N   -0.815520145   1.197894572   0.002764702
  N   -1.109218478   1.826131120   0.843341862
  N    1.527787765  -2.126888869   0.516453399
  N    1.373483449  -2.050999267  -0.601559068
  C    1.193171174  -1.958319378  -1.875591258
  H    0.572721572  -1.157284114  -2.233717220
  H    1.671759725  -2.685262893  -2.506235509
