7
charge=0 charge_a=0 charge_b=0 selection_a=1-2 selection_b=3-7 scaling=1.05 benchmark_Eint=-1.007 benchmark_unit=kcal/mol group=HBCNO
  N   -0.815520145   1.197894572   0.002764702
  N   -1.109218478   1.826131120   0.843341862
  N    1.221471211  -1.658180383   0.661577279
  N    1.067166895  -1.582290781  -0.456435188
  C    0.886854620  -1.489610892  -1.730467378
  H    0.266405018  -0.688575628  -2.088593340
  H    1.365443171  -2.216554407  -2.361111629
