11
charge=0 charge_a=0 charge_b=0 selection_a=1-2 selection_b=3-11 scaling=1.10 benchmark_Eint=-1.110 benchmark_unit=kcal/mol group=HBCNO
  N    0.255553581  -0.512226721  -3.155261275
  N    0.028962869  -0.372372311  -2.098496392
  N   -0.829152886  -0.798785122   1.542614430
  C    0.497081273  -0.701291757   1.568517445
  N    1.195437758   0.407383502   1.338834258
  C    0.454979485   1.477824293   1.064303728
  N   -0.873677057   1.505155095   1.008623943
  C   -1.459572863   0.336722820   1.255521878
  H    1.056016570  -1.601011822   1.795631847
  H    0.978565146   2.405837745   0.868912818
  H   -2.541841472   0.307561974   1.219919998
