18
charge=0 charge_a=0 charge_b=0 selection_a=1-9 selection_b=10-18 scaling=1.05 benchmark_Eint=-3.888 benchmark_unit=kcal/mol group=HBCNO
  N    0.413281816  -2.001500538  -1.182609945
  C    0.971710046  -2.246391713   0.000000007
  N    0.413281830  -2.001500533   1.182609958
  C   -0.798669671  -1.456658837   1.119200374
  N   -1.452908022  -1.157149728  -0.000000001
  C   -0.798669683  -1.456658842  -1.119200379
  H    1.964393825  -2.678850091   0.000000010
  H   -1.291532007  -1.229004404   2.056335100
  H   -1.291532022  -1.229004411  -2.056335126
  N   -0.393279367   2.166416228  -1.182609956
  C   -0.951707583   2.411307398  -0.000000000
  N   -0.393279365   2.166416216   1.182609953
  C    0.818672130   1.621574522   1.119200375
  N    1.472910468   1.322065417  -0.000000000
  C    0.818672128   1.621574533  -1.119200375
  H   -1.944391352   2.843765778   0.000000005
  H    1.311534474   1.393920089   2.056335103
  H    1.311534476   1.393920099  -2.056335104
