16
charge=0 charge_a=0 charge_b=0 selection_a=1-7 selection_b=8-16 scaling=0.80 benchmark_Eint=1.895 benchmark_unit=kcal/mol group=HBCNO
  C    0.601732102  -0.573573100  -2.278302371
  N   -0.432641696   0.209895957  -1.603769760
  H    1.346160208  -1.027319019  -1.614532180
  H    1.127701599   0.063665522  -2.988297811
  H    0.130271716  -1.371483959  -2.850918037
  H   -0.030390628   0.975313147  -1.080762630
  H   -0.956261746  -0.357878001  -0.952124221
  N   -0.622378515  -0.825363964   1.329417785
  C    0.446158990  -1.516285858   0.939485212
  N    1.637643061  -0.999521619   0.652472273
  C    1.709087610   0.322983203   0.774716138
  N    0.712762654   1.118962345   1.155472763
  C   -0.426908172   0.487290528   1.424493220
  H    0.335582654  -2.589816140   0.846357462
  H    2.657694979   0.792015140   0.543348291
  H   -1.267493349   1.092784904   1.740723624
