16
charge=0 charge_a=0 charge_b=0 selection_a=1-7 selection_b=8-16 scaling=1.25 benchmark_Eint=-1.202 benchmark_unit=kcal/mol group=HBCNO
  C    0.601732102  -0.573573100  -2.278302371
  N   -0.432641696   0.209895957  -1.603769760
  H    1.346160208  -1.027319019  -1.614532180
  H    1.127701599   0.063665522  -2.988297811
  H    0.130271716  -1.371483959  -2.850918037
  H   -0.030390628   0.975313147  -1.080762630
  H   -0.956261746  -0.357878001  -0.952124221
  N   -0.414028354  -0.847834016   2.597734762
  C    0.654509151  -1.538755910   2.207802189
  N    1.845993222  -1.021991671   1.920789250
  C    1.917437771   0.300513151   2.043033115
  N    0.921112815   1.096492293   2.423789740
  C   -0.218558011   0.464820476   2.692810197
  H    0.543932815  -2.612286192   2.114674439
  H    2.866045140   0.769545088   1.811665268
  H   -1.059143188   1.070314852   3.009040601
