18
charge=0 charge_a=0 charge_b=0 selection_a=1-9 selection_b=10-18 scaling=2.00 benchmark_Eint=-0.143 benchmark_unit=kcal/mol group=HBCNO
  N    0.413281816  -2.001500538  -1.182609945
  C    0.971710046  -2.246391713   0.000000007
  N    0.413281830  -2.001500533   1.182609958
  C   -0.798669671  -1.456658837   1.119200374
  N   -1.452908022  -1.157149728  -0.000000001
  C   -0.798669683  -1.456658842  -1.119200379
  H    1.964393825  -2.678850091   0.000000010
  H   -1.291532007  -1.229004404   2.056335100
  H   -1.291532022  -1.229004411  -2.056335126
  N   -0.013232658   5.299814277  -1.182609959
  C   -0.571660874   5.544705447  -0.000000003
  N   -0.013232656   5.299814265   1.182609950
  C    1.198718839   4.754972571   1.119200372
  N    1.852957177   4.455463466  -0.000000003
  C    1.198718837   4.754972582  -1.119200378
  H   -1.564344643   5.977163827   0.000000002
  H    1.691581183   4.527318138   2.056335100
  H    1.691581185   4.527318148  -2.056335107
