9
charge=0 charge_a=0 charge_b=0 selection_a=1-2 selection_b=3-9 scaling=1.25 benchmark_Eint=-0.470 benchmark_unit=kcal/mol group=HBCNO
  N   -1.386143670   0.963165179  -0.996258772
  N   -1.915525853   1.649660226  -0.335922376
  C    2.436293019  -2.133833903   1.172265773
  N    1.629647705  -1.051035805   0.609847284
  H    3.141681825  -2.598383695   0.473150320
  H    1.776103488  -2.913801123   1.549871137
  H    3.005402965  -1.754700089   2.020288982
  H    1.079594046  -1.377372269  -0.173051519
  H    2.218478833  -0.306463914   0.261353762
