9
charge=0 charge_a=0 charge_b=0 selection_a=1-2 selection_b=3-9 scaling=1.05 benchmark_Eint=-0.769 benchmark_unit=kcal/mol group=HBCNO
  N   -1.386143670   0.963165179  -0.996258772
  N   -1.915525853   1.649660226  -0.335922376
  C    2.016843670  -1.804818128   0.998612441
  N    1.210198356  -0.722020030   0.436193952
  H    2.722232476  -2.269367920   0.299496988
  H    1.356654139  -2.584785348   1.376217805
  H    2.585953616  -1.425684314   1.846635650
  H    0.660144697  -1.048356494  -0.346704851
  H    1.799029484   0.022551861   0.087700430
