18
charge=0 charge_a=0 charge_b=0 selection_a=1-9 selection_b=10-18 scaling=0.80 benchmark_Eint=6.024 benchmark_unit=kcal/mol group=HBCNO
  N    0.413281816  -2.001500538  -1.182609945
  C    0.971710046  -2.246391713   0.000000007
  N    0.413281830  -2.001500533   1.182609958
  C   -0.798669671  -1.456658837   1.119200374
  N   -1.452908022  -1.157149728  -0.000000001
  C   -0.798669683  -1.456658842  -1.119200379
  H    1.964393825  -2.678850091   0.000000010
  H   -1.291532007  -1.229004404   2.056335100
  H   -1.291532022  -1.229004411  -2.056335126
  N   -0.493291658   1.341837794  -1.182609955
  C   -1.051719874   1.586728964   0.000000001
  N   -0.493291656   1.341837782   1.182609954
  C    0.718659839   0.796996088   1.119200376
  N    1.372898177   0.497486983   0.000000001
  C    0.718659837   0.796996099  -1.119200374
  H   -2.044403643   2.019187344   0.000000006
  H    1.211522183   0.569341655   2.056335104
  H    1.211522185   0.569341665  -2.056335103
