11
charge=0 charge_a=0 charge_b=0 selection_a=1-2 selection_b=3-11 scaling=1.05 benchmark_Eint=-1.258 benchmark_unit=kcal/mol group=HBCNO
  N    0.255553581  -0.512226721  -3.155261275
  N    0.028962869  -0.372372311  -2.098496392
  N   -0.816068099  -0.832965520   1.377765449
  C    0.510166060  -0.735472155   1.403668464
  N    1.208522545   0.373203104   1.173985277
  C    0.468064272   1.443643895   0.899454747
  N   -0.860592270   1.470974697   0.843774962
  C   -1.446488076   0.302542422   1.090672897
  H    1.069101357  -1.635192220   1.630782866
  H    0.991649933   2.371657347   0.704063837
  H   -2.528756685   0.273381576   1.055071017
