7
charge=0 charge_a=0 charge_b=0 selection_a=1-2 selection_b=3-7 scaling=2.00 benchmark_Eint=-0.072 benchmark_unit=kcal/mol group=HBCNO
  N   -0.815520145   1.197894572   0.002764702
  N   -1.109218478   1.826131120   0.843341862
  N    2.676474841  -3.884545691  -0.027761149
  N    2.522170525  -3.808656089  -1.145773616
  C    2.341858250  -3.715976200  -2.419805806
  H    1.721408648  -2.914940936  -2.777931768
  H    2.820446801  -4.442919715  -3.050450057
