16
charge=0 charge_a=0 charge_b=0 selection_a=1-7 selection_b=8-16 scaling=1.10 benchmark_Eint=-3.523 benchmark_unit=kcal/mol group=HBCNO
  N   -2.091322493  -1.130784588   0.426987232
  N   -2.280288301  -0.037486621   0.212632946
  N   -2.495054150   1.162025764   0.111358494
  C   -2.418395406   1.718923164  -1.250951691
  H   -2.663040880   2.772007958  -1.169414016
  H   -3.138663654   1.238121668  -1.914637051
  H   -1.412571636   1.608863299  -1.656729311
  N    1.325362901   0.064683917   1.757453931
  C    0.992341086   0.826457141   0.720538781
  N    1.028028993   0.449032678  -0.556190588
  C    1.451610995  -0.797312534  -0.752633526
  N    1.820159409  -1.646933315   0.200659572
  C    1.727276998  -1.162838486   1.435981475
  H    0.653691505   1.832842684   0.931422269
  H    1.499652067  -1.148932416  -1.776133661
  H    2.003520736  -1.822461724   2.249331121
