9
charge=0 charge_a=0 charge_b=0 selection_a=1-2 selection_b=3-9 scaling=1.00 benchmark_Eint=-0.796 benchmark_unit=kcal/mol group=HBCNO
  N   -1.386143670   0.963165179  -0.996258772
  N   -1.915525853   1.649660226  -0.335922376
  C    1.911981333  -1.722564184   0.955199108
  N    1.105336019  -0.639766086   0.392780619
  H    2.617370139  -2.187113976   0.256083655
  H    1.251791802  -2.502531404   1.332804472
  H    2.481091279  -1.343430370   1.803222317
  H    0.555282360  -0.966102550  -0.390118184
  H    1.694167147   0.104805805   0.044287097
