9
charge=0 charge_a=0 charge_b=0 selection_a=1-2 selection_b=3-9 scaling=1.50 benchmark_Eint=-0.218 benchmark_unit=kcal/mol group=HBCNO
  N   -1.386143670   0.963165179  -0.996258772
  N   -1.915525853   1.649660226  -0.335922376
  C    2.960604706  -2.545103622   1.389332437
  N    2.153959392  -1.462305524   0.826913948
  H    3.665993512  -3.009653414   0.690216984
  H    2.300415175  -3.325070842   1.766937801
  H    3.529714652  -2.165969808   2.237355646
  H    1.603905733  -1.788641988   0.044015145
  H    2.742790520  -0.717733633   0.478420426
