11
charge=0 charge_a=0 charge_b=0 selection_a=1-2 selection_b=3-11 scaling=0.85 benchmark_Eint=0.428 benchmark_unit=kcal/mol group=HBCNO
  N    0.255553581  -0.512226721  -3.155261275
  N    0.028962869  -0.372372311  -2.098496392
  N   -0.763728951  -0.969687115   0.718369528
  C    0.562505208  -0.872193750   0.744272543
  N    1.260861693   0.236481509   0.514589356
  C    0.520403420   1.306922300   0.240058826
  N   -0.808253122   1.334253102   0.184379041
  C   -1.394148928   0.165820827   0.431276976
  H    1.121440505  -1.771913815   0.971386945
  H    1.043989081   2.234935752   0.044667916
  H   -2.476417537   0.136659981   0.395675096
