5
charge=0 charge_a=0 charge_b=0 selection_a=1-3 selection_b=4-5 scaling=2.00 benchmark_Eint=-0.039 benchmark_unit=kcal/mol group=HBCNO
  O   -0.665226825   0.296046753  -1.690869116
  C   -1.237618216   0.155504865  -0.693370995
  O   -1.816366914   0.015725490   0.300563858
  N    5.148461534  -0.647256449   2.869905499
  N    4.201241690  -0.525118566   2.345176223
