10
charge=0 charge_a=0 charge_b=0 selection_a=1-3 selection_b=4-10 scaling=1.10 benchmark_Eint=-2.034 benchmark_unit=kcal/mol group=HBCNO
  O   -2.142213388   0.908753100   0.958097836
  C   -1.220337379   0.978656192   0.263015913
  O   -0.299706314   1.062365275  -0.438667229
  N    0.276467262  -2.046331937   0.808002029
  N    0.875402538  -2.075031936  -0.150832939
  N    1.444959399  -2.205975207  -1.222840016
  C    2.538417283  -1.259887922  -1.499126628
  H    2.936825746  -1.521140661  -2.472875774
  H    3.332381516  -1.345607059  -0.755556815
  H    2.172339059  -0.233664102  -1.523075302
