10
charge=0 charge_a=0 charge_b=0 selection_a=1-3 selection_b=4-10 scaling=1.05 benchmark_Eint=-1.352 benchmark_unit=kcal/mol group=HBCNO
  O   -0.630421121  -1.160117968  -1.725687838
  C   -0.835649304  -0.073795639  -1.378854284
  O   -1.042862797   1.012736192  -1.033877722
  C    1.771702343  -0.395036940   1.186840546
  N    0.484934079  -0.817474078   1.734227096
  H    1.752587914  -0.064983258   0.140677690
  H    2.480566062  -1.218457384   1.260557281
  H    2.163785276   0.426073695   1.785149239
  H    0.101884298  -1.599675508   1.222021834
  H   -0.192295783  -0.067937425   1.712571870
