5
charge=0 charge_a=0 charge_b=0 selection_a=1-3 selection_b=4-5 scaling=0.80 benchmark_Eint=2.060 benchmark_unit=kcal/mol group=HBCNO
  O   -0.665226825   0.296046753  -1.690869116
  C   -1.237618216   0.155504865  -0.693370995
  O   -1.816366914   0.015725490   0.300563858
  N    1.884722166  -0.237842249   1.047768067
  N    0.937502322  -0.115704366   0.523038791
