18
charge=0 charge_a=0 charge_b=0 selection_a=1-9 selection_b=10-18 scaling=0.90 benchmark_Eint=-3.279 benchmark_unit=kcal/mol group=HBCNO
  C    0.107573893   1.174305277  -2.261685947
  O   -0.469833332   0.000000003  -1.736148720
  C    0.107573879  -1.174305274  -2.261685963
  H   -0.390818805   2.018473762  -1.792024319
  H   -0.027990716   1.234620871  -3.347220469
  H    1.180241193   1.221511487  -2.041311230
  H   -0.390818822  -2.018473750  -1.792024331
  H    1.180241171  -1.221511486  -2.041311250
  H   -0.027990730  -1.234620877  -3.347220490
  N   -0.647357851  -1.182542611   0.952032767
  C    0.672397131  -1.117747215   0.811836307
  N    1.388807377   0.000000008   0.728729923
  C    0.672397129   1.117747225   0.811836291
  N   -0.647357857   1.182542600   0.952032747
  C   -1.254049662  -0.000000010   1.002651554
  H    1.212004816  -2.055836475   0.759115973
  H    1.212004816   2.055836484   0.759115932
  H   -2.332687266  -0.000000017   1.098413524
