10
charge=0 charge_a=0 charge_b=0 selection_a=1-3 selection_b=4-10 scaling=1.50 benchmark_Eint=-0.720 benchmark_unit=kcal/mol group=HBCNO
  O   -2.142213388   0.908753100   0.958097836
  C   -1.220337379   0.978656192   0.263015913
  O   -0.299706314   1.062365275  -0.438667229
  N    0.990079692  -2.848439677   0.583678898
  N    1.589014968  -2.877139676  -0.375156070
  N    2.158571829  -3.008082947  -1.447163147
  C    3.252029713  -2.061995662  -1.723449759
  H    3.650438176  -2.323248401  -2.697198905
  H    4.045993946  -2.147714799  -0.979879946
  H    2.885951489  -1.035771842  -1.747398433
