10
charge=0 charge_a=0 charge_b=0 selection_a=1-3 selection_b=4-10 scaling=2.00 benchmark_Eint=-0.026 benchmark_unit=kcal/mol group=HBCNO
  O   -0.630421121  -1.160117968  -1.725687838
  C   -0.835649304  -0.073795639  -1.378854284
  O   -1.042862797   1.012736192  -1.033877722
  C    3.303568803  -0.812225600   3.407392936
  N    2.016800539  -1.234662738   3.954779486
  H    3.284454374  -0.482171918   2.361230080
  H    4.012432522  -1.635646044   3.481109671
  H    3.695651736   0.008885035   4.005701629
  H    1.633750758  -2.016864168   3.442574224
  H    1.339570677  -0.485126085   3.933124260
