11
charge=0 charge_a=0 charge_b=0 selection_a=1-9 selection_b=10-11 scaling=1.50 benchmark_Eint=-0.245 benchmark_unit=kcal/mol group=HBCNO
  C   -2.059906908  -0.062450405  -0.550205412
  O   -0.802170800   0.083447553  -1.169536204
  C   -0.305583601   1.399741057  -1.082736621
  H   -2.362851312  -1.100040844  -0.666476260
  H   -2.812123745   0.584932614  -1.015603738
  H   -2.009850283   0.176714701   0.518387036
  H    0.664979638   1.415560940  -1.572058669
  H   -0.184357744   1.713725470  -0.039406732
  H   -0.971928729   2.111972291  -1.582964923
  N    2.160220444  -1.433334600   2.216019029
  N    1.278192471  -1.715873502   2.790294222
