18
charge=0 charge_a=0 charge_b=0 selection_a=1-9 selection_b=10-18 scaling=0.85 benchmark_Eint=-1.104 benchmark_unit=kcal/mol group=HBCNO
  C    0.107573893   1.174305277  -2.261685947
  O   -0.469833332   0.000000003  -1.736148720
  C    0.107573879  -1.174305274  -2.261685963
  H   -0.390818805   2.018473762  -1.792024319
  H   -0.027990716   1.234620871  -3.347220469
  H    1.180241193   1.221511487  -2.041311230
  H   -0.390818822  -2.018473750  -1.792024331
  H    1.180241171  -1.221511486  -2.041311250
  H   -0.027990730  -1.234620877  -3.347220490
  N   -0.652895558  -1.182542611   0.794632319
  C    0.666859424  -1.117747215   0.654435859
  N    1.383269670   0.000000008   0.571329475
  C    0.666859422   1.117747225   0.654435843
  N   -0.652895564   1.182542600   0.794632299
  C   -1.259587369  -0.000000010   0.845251106
  H    1.206467109  -2.055836475   0.601715525
  H    1.206467109   2.055836484   0.601715484
  H   -2.338224973  -0.000000017   0.941013076
