18
charge=0 charge_a=0 charge_b=0 selection_a=1-9 selection_b=10-18 scaling=1.50 benchmark_Eint=-0.811 benchmark_unit=kcal/mol group=HBCNO
  C    0.107573893   1.174305277  -2.261685947
  O   -0.469833332   0.000000003  -1.736148720
  C    0.107573879  -1.174305274  -2.261685963
  H   -0.390818805   2.018473762  -1.792024319
  H   -0.027990716   1.234620871  -3.347220469
  H    1.180241193   1.221511487  -2.041311230
  H   -0.390818822  -2.018473750  -1.792024331
  H    1.180241171  -1.221511486  -2.041311250
  H   -0.027990730  -1.234620877  -3.347220490
  N   -0.580905366  -1.182542612   2.840838153
  C    0.738849616  -1.117747216   2.700641693
  N    1.455259862   0.000000007   2.617535309
  C    0.738849614   1.117747224   2.700641677
  N   -0.580905372   1.182542599   2.840838133
  C   -1.187597177  -0.000000011   2.891456940
  H    1.278457301  -2.055836476   2.647921359
  H    1.278457301   2.055836483   2.647921318
  H   -2.266234781  -0.000000018   2.987218910
