10
charge=0 charge_a=0 charge_b=0 selection_a=1-3 selection_b=4-10 scaling=0.90 benchmark_Eint=-1.110 benchmark_unit=kcal/mol group=HBCNO
  O   -0.630421121  -1.160117968  -1.725687838
  C   -0.835649304  -0.073795639  -1.378854284
  O   -1.042862797   1.012736192  -1.033877722
  C    1.529828691  -0.329165046   0.836227011
  N    0.243060427  -0.751602184   1.383613561
  H    1.510714262   0.000888636  -0.209935845
  H    2.238692410  -1.152585490   0.909943746
  H    1.921911624   0.491945589   1.434535704
  H   -0.139989354  -1.533803614   0.871408299
  H   -0.434169435  -0.002065531   1.361958335
