18
charge=0 charge_a=0 charge_b=0 selection_a=1-9 selection_b=10-18 scaling=1.10 benchmark_Eint=-3.370 benchmark_unit=kcal/mol group=HBCNO
  C    0.107573893   1.174305277  -2.261685947
  O   -0.469833332   0.000000003  -1.736148720
  C    0.107573879  -1.174305274  -2.261685963
  H   -0.390818805   2.018473762  -1.792024319
  H   -0.027990716   1.234620871  -3.347220469
  H    1.180241193   1.221511487  -2.041311230
  H   -0.390818822  -2.018473750  -1.792024331
  H    1.180241171  -1.221511486  -2.041311250
  H   -0.027990730  -1.234620877  -3.347220490
  N   -0.625207023  -1.182542611   1.581634563
  C    0.694547959  -1.117747215   1.441438103
  N    1.410958205   0.000000008   1.358331719
  C    0.694547957   1.117747225   1.441438087
  N   -0.625207029   1.182542600   1.581634543
  C   -1.231898834  -0.000000010   1.632253350
  H    1.234155644  -2.055836475   1.388717769
  H    1.234155644   2.055836484   1.388717728
  H   -2.310536438  -0.000000017   1.728015320
