10
charge=0 charge_a=0 charge_b=0 selection_a=1-3 selection_b=4-10 scaling=0.95 benchmark_Eint=-2.337 benchmark_unit=kcal/mol group=HBCNO
  O   -2.142213388   0.908753100   0.958097836
  C   -1.220337379   0.978656192   0.263015913
  O   -0.299706314   1.062365275  -0.438667229
  N    0.008862601  -1.745541534   0.892123203
  N    0.607797877  -1.774241533  -0.066711765
  N    1.177354738  -1.905184804  -1.138718842
  C    2.270812622  -0.959097519  -1.415005454
  H    2.669221085  -1.220350258  -2.388754600
  H    3.064776855  -1.044816656  -0.671435641
  H    1.904734398   0.067126301  -1.438954128
