19
charge=0 charge_a=0 charge_b=0 selection_a=1-7 selection_b=8-19 scaling=0.85 benchmark_Eint=-1.662 benchmark_unit=kcal/mol group=HBCNO
  N    2.745984853  -0.729704889   0.557737227
  N    2.209160503  -0.121052897  -0.228438154
  N    1.678890912   0.646848434  -1.017607770
  C    0.791652481   0.038020899  -2.020793083
  H    0.387948179   0.851448012  -2.612665912
  H   -0.030556857  -0.498466415  -1.548295196
  H    1.342055361  -0.639903800  -2.675033509
  B   -0.172145005   0.937240625   1.085791338
  H    0.617680778   1.667275240   1.591091806
  N   -1.228194557   1.431224482   0.261004677
  H   -1.287635991   2.422518422   0.105042166
  B   -2.199756083   0.584931762  -0.347561092
  H   -3.069056146   1.025336232  -1.031303515
  N   -2.080046496  -0.818017634  -0.108956276
  H   -2.758090940  -1.435175997  -0.521161695
  B   -1.053834420  -1.380558290   0.709640203
  H   -0.982024090  -2.554096125   0.894020918
  N   -0.112390476  -0.476365577   1.281386478
  H    0.629171092  -0.849141606   1.849454230
