19
charge=0 charge_a=0 charge_b=0 selection_a=1-7 selection_b=8-19 scaling=2.00 benchmark_Eint=-0.282 benchmark_unit=kcal/mol group=HBCNO
  N    2.745984853  -0.729704889   0.557737227
  N    2.209160503  -0.121052897  -0.228438154
  N    1.678890912   0.646848434  -1.017607770
  C    0.791652481   0.038020899  -2.020793083
  H    0.387948179   0.851448012  -2.612665912
  H   -0.030556857  -0.498466415  -1.548295196
  H    1.342055361  -0.639903800  -2.675033509
  B   -3.278648552   1.035072319   2.337423709
  H   -2.488822769   1.765106934   2.842724177
  N   -4.334698104   1.529056176   1.512637048
  H   -4.394139538   2.520350116   1.356674537
  B   -5.306259630   0.682763456   0.904071279
  H   -6.175559693   1.123167926   0.220328856
  N   -5.186550043  -0.720185940   1.142676095
  H   -5.864594487  -1.337344303   0.730470676
  B   -4.160337967  -1.282726596   1.961272574
  H   -4.088527637  -2.456264431   2.145653289
  N   -3.218894023  -0.378533883   2.533018849
  H   -2.477332455  -0.751309912   3.101086601
