17
charge=0 charge_a=0 charge_b=0 selection_a=1-5 selection_b=6-17 scaling=0.90 benchmark_Eint=-2.163 benchmark_unit=kcal/mol group=HBCNO
  N    2.143964407   1.791692900  -1.628054134
  N    1.208876599   1.611794522  -2.234195866
  C    0.122491188   1.397824698  -2.903117247
  H   -0.112726982   0.378811438  -3.153031283
  H   -0.404774399   2.252146582  -3.287584386
  B    0.194956823  -0.857459959  -0.194618677
  H    0.767283591  -1.073190916  -1.217613277
  N   -0.688119698   0.251941824  -0.057976252
  H   -0.811997394   0.860567868  -0.851105063
  B   -1.383783656   0.540132212   1.152751932
  H   -2.112688502   1.477122337   1.243691295
  N   -1.169582159  -0.344416082   2.252780484
  H   -1.649455935  -0.161487719   3.116875272
  B   -0.300941108  -1.473814470   2.181825079
  H   -0.139354330  -2.193688593   3.116097063
  N    0.366137305  -1.703468105   0.941154102
  H    0.986222169  -2.491061891   0.867162424
