15
charge=0 charge_a=0 charge_b=0 selection_a=1-7 selection_b=8-15 scaling=1.05 benchmark_Eint=-1.463 benchmark_unit=kcal/mol group=HBCNO
  C    0.529897835  -0.771297792  -1.963307028
  N   -0.319557174   0.410951873  -1.847592356
  H    0.310085258  -1.572349281  -1.246224905
  H    1.571240752  -0.479068573  -1.831845397
  H    0.435991157  -1.187339436  -2.965688561
  H   -0.228334466   0.829873807  -0.932078077
  H   -1.293917421   0.168041361  -1.964859738
  B    0.216173144  -0.776606323   1.989247792
  H    0.320945014  -1.609296323   2.824139295
  H   -0.758189541  -0.682368802   1.322904813
  H    1.265866836  -0.822816455   1.206219080
  B    1.534307859   0.349820226   1.723998911
  H    1.420609471   1.179699704   0.886368434
  H    2.515351874   0.266358985   2.381064270
  H    0.492667352   0.391121259   2.517804500
