17
charge=0 charge_a=0 charge_b=0 selection_a=1-5 selection_b=6-17 scaling=1.50 benchmark_Eint=-0.746 benchmark_unit=kcal/mol group=HBCNO
  N    2.143964407   1.791692900  -1.628054134
  N    1.208876599   1.611794522  -2.234195866
  C    0.122491188   1.397824698  -2.903117247
  H   -0.112726982   0.378811438  -3.153031283
  H   -0.404774399   2.252146582  -3.287584386
  B   -0.390382062  -1.642381055   0.991752730
  H    0.181944706  -1.858112012  -0.031241870
  N   -1.273458583  -0.532979272   1.128395155
  H   -1.397336279   0.075646772   0.335266344
  B   -1.969122541  -0.244788884   2.339123339
  H   -2.698027387   0.692201241   2.430062702
  N   -1.754921044  -1.129337178   3.439151891
  H   -2.234794820  -0.946408815   4.303246679
  B   -0.886279993  -2.258735566   3.368196486
  H   -0.724693215  -2.978609689   4.302468470
  N   -0.219201580  -2.488389201   2.127525509
  H    0.400883284  -3.275982987   2.053533831
