13
charge=0 charge_a=0 charge_b=0 selection_a=1-5 selection_b=6-13 scaling=1.50 benchmark_Eint=-0.606 benchmark_unit=kcal/mol group=HBCNO
  N   -0.658935628  -1.191873982  -1.710336869
  N   -0.907640425  -0.100247432  -1.546883395
  C   -1.182971748   1.140846433  -1.328340931
  H   -2.189554249   1.390733357  -1.045921641
  H   -0.400712595   1.863275643  -1.475291596
  B    0.044461804   0.171154079   3.136936522
  H   -1.076622700   0.464989229   3.380976379
  H    0.881501565   0.994945342   2.983819806
  H    0.066630407  -0.662327056   2.130797575
  B    0.478819321  -1.526444694   3.021015806
  H    1.601412190  -1.819761063   2.785042057
  H   -0.359079101  -2.347142168   3.182845287
  H    0.460408240  -0.693331473   4.033226634
