13
charge=0 charge_a=0 charge_b=0 selection_a=1-5 selection_b=6-13 scaling=0.85 benchmark_Eint=-0.913 benchmark_unit=kcal/mol group=HBCNO
  N   -0.658935628  -1.191873982  -1.710336869
  N   -0.907640425  -0.100247432  -1.546883395
  C   -1.182971748   1.140846433  -1.328340931
  H   -2.189554249   1.390733357  -1.045921641
  H   -0.400712595   1.863275643  -1.475291596
  B   -0.366649876   0.397221981   1.537739016
  H   -1.487734380   0.691057131   1.781778873
  H    0.470389885   1.221013244   1.384622300
  H   -0.344481273  -0.436259154   0.531600069
  B    0.067707641  -1.300376792   1.421818300
  H    1.190300510  -1.593693161   1.185844551
  H   -0.770190781  -2.121074266   1.583647781
  H    0.049296560  -0.467263571   2.434029128
