18
charge=0 charge_a=0 charge_b=0 selection_a=1-4 selection_b=5-18 scaling=1.25 benchmark_Eint=-2.180 benchmark_unit=kcal/mol group=HBCNO
  N    0.425741913   0.059335184  -1.643763941
  N   -0.751956419   0.322665329  -1.384846245
  H    0.869684616  -0.246678570  -0.764549236
  H   -1.197768015   0.630100416  -2.263243472
  B    1.134875031  -0.872978582   2.409984563
  B   -0.074564767   0.293141876   2.569325970
  B    0.567098426  -1.935924662   3.591633814
  B    0.939378048  -0.221147817   3.954519516
  B   -0.447613520  -1.422714256   2.206455989
  H    2.082806925  -0.930872443   1.711817281
  H   -0.253791492   1.317865157   2.020629930
  H    0.982404532  -2.970179134   3.972712030
  H    1.698353378   0.325362856   4.670522308
  H   -0.972661327  -1.990602039   1.320201571
  H   -0.179301192   0.507974585   3.892222372
  H   -1.226857372  -0.391153331   2.558108343
  H    0.310313555  -1.170748768   4.661644169
  H   -0.740087703  -2.073162978   3.345449345
