13
charge=0 charge_a=0 charge_b=0 selection_a=1-5 selection_b=6-13 scaling=1.05 benchmark_Eint=-2.025 benchmark_unit=kcal/mol group=HBCNO
  N   -0.658935628  -1.191873982  -1.710336869
  N   -0.907640425  -0.100247432  -1.546883395
  C   -1.182971748   1.140846433  -1.328340931
  H   -2.189554249   1.390733357  -1.045921641
  H   -0.400712595   1.863275643  -1.475291596
  B   -0.240153975   0.327662626   2.029799787
  H   -1.361238479   0.621497776   2.273839644
  H    0.596885786   1.151453889   1.876683071
  H   -0.217985372  -0.505818509   1.023660840
  B    0.194203542  -1.369936147   1.913879071
  H    1.316796411  -1.663252516   1.677905322
  H   -0.643694880  -2.190633621   2.075708552
  H    0.175792461  -0.536822926   2.926089899
