17
charge=0 charge_a=0 charge_b=0 selection_a=1-5 selection_b=6-17 scaling=1.05 benchmark_Eint=-2.513 benchmark_unit=kcal/mol group=HBCNO
  N    2.143964407   1.791692900  -1.628054134
  N    1.208876599   1.611794522  -2.234195866
  C    0.122491188   1.397824698  -2.903117247
  H   -0.112726982   0.378811438  -3.153031283
  H   -0.404774399   2.252146582  -3.287584386
  B    0.048622102  -1.053690233   0.101974175
  H    0.620948870  -1.269421190  -0.921020425
  N   -0.834454419   0.055711550   0.238616600
  H   -0.958332115   0.664337594  -0.554512211
  B   -1.530118377   0.343901938   1.449344784
  H   -2.259023223   1.280892063   1.540284147
  N   -1.315916880  -0.540646356   2.549373336
  H   -1.795790656  -0.357717993   3.413468124
  B   -0.447275829  -1.670044744   2.478417931
  H   -0.285689051  -2.389918867   3.412689915
  N    0.219802584  -1.899698379   1.237746954
  H    0.839887448  -2.687292165   1.163755276
