18
charge=0 charge_a=0 charge_b=0 selection_a=1-4 selection_b=5-18 scaling=0.85 benchmark_Eint=-1.995 benchmark_unit=kcal/mol group=HBCNO
  N    0.425741913   0.059335184  -1.643763941
  N   -0.751956419   0.322665329  -1.384846245
  H    0.869684616  -0.246678570  -0.764549236
  H   -1.197768015   0.630100416  -2.263243472
  B    1.024915972  -0.670020484   1.518249557
  B   -0.184523826   0.496099974   1.677590964
  B    0.457139367  -1.732966564   2.699898808
  B    0.829418989  -0.018189719   3.062784510
  B   -0.557572579  -1.219756158   1.314720983
  H    1.972847866  -0.727914345   0.820082275
  H   -0.363750551   1.520823255   1.128894924
  H    0.872445473  -2.767221036   3.080977024
  H    1.588394319   0.528320954   3.778787302
  H   -1.082620386  -1.787643941   0.428466565
  H   -0.289260251   0.710932683   3.000487366
  H   -1.336816431  -0.188195233   1.666373337
  H    0.200354496  -0.967790670   3.769909163
  H   -0.850046762  -1.870204880   2.453714339
