17
charge=0 charge_a=0 charge_b=0 selection_a=1-9 selection_b=10-17 scaling=0.85 benchmark_Eint=-0.932 benchmark_unit=kcal/mol group=HBCNO
  N   -1.501162179   0.167958959  -2.231790573
  C   -0.692111546   1.219522335  -2.134417783
  N    0.584785137   1.180711609  -1.761961924
  C    1.037057555  -0.034437170  -1.467883312
  N    0.324570534  -1.157390364  -1.521681783
  C   -0.936560582  -0.993110427  -1.912735324
  H   -1.107818919   2.189289236  -2.379350982
  H    2.069620996  -0.117091211  -1.152385470
  H   -1.556461601  -1.879408616  -1.973554493
  B   -0.786132314  -0.398421752   1.360951231
  H   -1.646604237  -1.031417030   1.871795476
  H   -1.027193898   0.433727430   0.553850691
  H    0.115747130  -1.215923277   0.878169831
  B    0.882680519  -0.692626105   1.801449420
  H    1.732246356  -0.053036145   1.279720032
  H    1.137080092  -1.520039617   2.609114839
  H   -0.023968739   0.116377195   2.294385773
