18
charge=0 charge_a=0 charge_b=0 selection_a=1-4 selection_b=5-18 scaling=1.10 benchmark_Eint=-2.861 benchmark_unit=kcal/mol group=HBCNO
  N    0.425741913   0.059335184  -1.643763941
  N   -0.751956419   0.322665329  -1.384846245
  H    0.869684616  -0.246678570  -0.764549236
  H   -1.197768015   0.630100416  -2.263243472
  B    1.093640384  -0.796869296   2.075583936
  B   -0.115799414   0.369251162   2.234925343
  B    0.525863779  -1.859815376   3.257233187
  B    0.898143401  -0.145038531   3.620118889
  B   -0.488848167  -1.346604970   1.872055362
  H    2.041572278  -0.854763157   1.377416654
  H   -0.295026139   1.393974443   1.686229303
  H    0.941169885  -2.894069848   3.638311403
  H    1.657118731   0.401472142   4.336121681
  H   -1.013895974  -1.914492753   0.985800944
  H   -0.220535839   0.584083871   3.557821745
  H   -1.268092019  -0.315044045   2.223707716
  H    0.269078908  -1.094639482   4.327243542
  H   -0.781322350  -1.997053692   3.011048718
