15
charge=0 charge_a=0 charge_b=0 selection_a=1-7 selection_b=8-15 scaling=1.10 benchmark_Eint=-1.373 benchmark_unit=kcal/mol group=HBCNO
  C    0.529897835  -0.771297792  -1.963307028
  N   -0.319557174   0.410951873  -1.847592356
  H    0.310085258  -1.572349281  -1.246224905
  H    1.571240752  -0.479068573  -1.831845397
  H    0.435991157  -1.187339436  -2.965688561
  H   -0.228334466   0.829873807  -0.932078077
  H   -1.293917421   0.168041361  -1.964859738
  B    0.240723837  -0.777465682   2.105623152
  H    0.345495707  -1.610155682   2.940514655
  H   -0.733638848  -0.683228161   1.439280173
  H    1.290417529  -0.823675814   1.322594440
  B    1.558858552   0.348960867   1.840374271
  H    1.445160164   1.178840345   1.002743794
  H    2.539902567   0.265499626   2.497439630
  H    0.517218045   0.390261900   2.634179860
