13
charge=0 charge_a=0 charge_b=0 selection_a=1-5 selection_b=6-13 scaling=0.95 benchmark_Eint=-2.061 benchmark_unit=kcal/mol group=HBCNO
  N   -0.658935628  -1.191873982  -1.710336869
  N   -0.907640425  -0.100247432  -1.546883395
  C   -1.182971748   1.140846433  -1.328340931
  H   -2.189554249   1.390733357  -1.045921641
  H   -0.400712595   1.863275643  -1.475291596
  B   -0.303401925   0.362442304   1.783769401
  H   -1.424486429   0.656277454   2.027809258
  H    0.533637836   1.186233567   1.630652685
  H   -0.281233322  -0.471038831   0.777630454
  B    0.130955592  -1.335156469   1.667848685
  H    1.253548461  -1.628472838   1.431874936
  H   -0.706942830  -2.155853943   1.829678166
  H    0.112544511  -0.502043248   2.680059513
