15
charge=0 charge_a=0 charge_b=0 selection_a=1-7 selection_b=8-15 scaling=1.50 benchmark_Eint=-0.507 benchmark_unit=kcal/mol group=HBCNO
  C    0.529897835  -0.771297792  -1.963307028
  N   -0.319557174   0.410951873  -1.847592356
  H    0.310085258  -1.572349281  -1.246224905
  H    1.571240752  -0.479068573  -1.831845397
  H    0.435991157  -1.187339436  -2.965688561
  H   -0.228334466   0.829873807  -0.932078077
  H   -1.293917421   0.168041361  -1.964859738
  B    0.437129377  -0.784340549   3.036626032
  H    0.541901247  -1.617030549   3.871517535
  H   -0.537233308  -0.690103028   2.370283053
  H    1.486823069  -0.830550681   2.253597320
  B    1.755264092   0.342086000   2.771377151
  H    1.641565704   1.171965478   1.933746674
  H    2.736308107   0.258624759   3.428442510
  H    0.713623585   0.383387033   3.565182740
