13
charge=0 charge_a=0 charge_b=0 selection_a=1-5 selection_b=6-13 scaling=2.00 benchmark_Eint=-0.167 benchmark_unit=kcal/mol group=HBCNO
  N   -0.658935628  -1.191873982  -1.710336869
  N   -0.907640425  -0.100247432  -1.546883395
  C   -1.182971748   1.140846433  -1.328340931
  H   -2.189554249   1.390733357  -1.045921641
  H   -0.400712595   1.863275643  -1.475291596
  B    0.360701557  -0.002744306   4.367088450
  H   -0.760382947   0.291090844   4.611128307
  H    1.197741318   0.821046957   4.213971734
  H    0.382870160  -0.836225441   3.360949503
  B    0.795059074  -1.700343079   4.251167734
  H    1.917651943  -1.993659448   4.015193985
  H   -0.042839348  -2.521040553   4.412997215
  H    0.776647993  -0.867229858   5.263378562
