17
charge=0 charge_a=0 charge_b=0 selection_a=1-5 selection_b=6-17 scaling=1.10 benchmark_Eint=-2.318 benchmark_unit=kcal/mol group=HBCNO
  N    2.143964407   1.791692900  -1.628054134
  N    1.208876599   1.611794522  -2.234195866
  C    0.122491188   1.397824698  -2.903117247
  H   -0.112726982   0.378811438  -3.153031283
  H   -0.404774399   2.252146582  -3.287584386
  B   -0.000156139  -1.119100325   0.200838459
  H    0.572170629  -1.334831282  -0.822156141
  N   -0.883232660  -0.009698542   0.337480884
  H   -1.007110356   0.598927502  -0.455647927
  B   -1.578896618   0.278491846   1.548209068
  H   -2.307801464   1.215481971   1.639148431
  N   -1.364695121  -0.606056448   2.648237620
  H   -1.844568897  -0.423128085   3.512332408
  B   -0.496054070  -1.735454836   2.577282215
  H   -0.334467292  -2.455328959   3.511554199
  N    0.171024343  -1.965108471   1.336611238
  H    0.791109207  -2.752702257   1.262619560
