17
charge=0 charge_a=0 charge_b=0 selection_a=1-5 selection_b=6-17 scaling=1.25 benchmark_Eint=-1.601 benchmark_unit=kcal/mol group=HBCNO
  N    2.143964407   1.791692900  -1.628054134
  N    1.208876599   1.611794522  -2.234195866
  C    0.122491188   1.397824698  -2.903117247
  H   -0.112726982   0.378811438  -3.153031283
  H   -0.404774399   2.252146582  -3.287584386
  B   -0.146490860  -1.315330598   0.497431310
  H    0.425835908  -1.531061555  -0.525563290
  N   -1.029567381  -0.205928815   0.634073735
  H   -1.153445077   0.402697229  -0.159055076
  B   -1.725231339   0.082261573   1.844801919
  H   -2.454136185   1.019251698   1.935741282
  N   -1.511029842  -0.802286721   2.944830471
  H   -1.990903618  -0.619358358   3.808925259
  B   -0.642388791  -1.931685109   2.873875066
  H   -0.480802013  -2.651559232   3.808147050
  N    0.024689622  -2.161338744   1.633204089
  H    0.644774486  -2.948932530   1.559212411
