17
charge=0 charge_a=0 charge_b=0 selection_a=1-9 selection_b=10-17 scaling=0.90 benchmark_Eint=-1.872 benchmark_unit=kcal/mol group=HBCNO
  N   -1.501162179   0.167958959  -2.231790573
  C   -0.692111546   1.219522335  -2.134417783
  N    0.584785137   1.180711609  -1.761961924
  C    1.037057555  -0.034437170  -1.467883312
  N    0.324570534  -1.157390364  -1.521681783
  C   -0.936560582  -0.993110427  -1.912735324
  H   -1.107818919   2.189289236  -2.379350982
  H    2.069620996  -0.117091211  -1.152385470
  H   -1.556461601  -1.879408616  -1.973554493
  B   -0.776175740  -0.423136355   1.499652901
  H   -1.636647663  -1.056131633   2.010497146
  H   -1.017237324   0.409012827   0.692552361
  H    0.125703704  -1.240637880   1.016871501
  B    0.892637093  -0.717340708   1.940151090
  H    1.742202930  -0.077750748   1.418421702
  H    1.147036666  -1.544754220   2.747816509
  H   -0.014012165   0.091662592   2.433087443
