19
charge=0 charge_a=0 charge_b=0 selection_a=1-7 selection_b=8-19 scaling=1.00 benchmark_Eint=-3.879 benchmark_unit=kcal/mol group=HBCNO
  N    2.745984853  -0.729704889   0.557737227
  N    2.209160503  -0.121052897  -0.228438154
  N    1.678890912   0.646848434  -1.017607770
  C    0.791652481   0.038020899  -2.020793083
  H    0.387948179   0.851448012  -2.612665912
  H   -0.030556857  -0.498466415  -1.548295196
  H    1.342055361  -0.639903800  -2.675033509
  B   -0.577341120   0.950001281   1.249047734
  H    0.212484663   1.680035896   1.754348202
  N   -1.633390672   1.443985138   0.424261073
  H   -1.692832106   2.435279078   0.268298562
  B   -2.604952198   0.597692418  -0.184304696
  H   -3.474252261   1.038096888  -0.868047119
  N   -2.485242611  -0.805256978   0.054300120
  H   -3.163287055  -1.422415341  -0.357905299
  B   -1.459030535  -1.367797634   0.872896599
  H   -1.387220205  -2.541335469   1.057277314
  N   -0.517586591  -0.463604921   1.444642874
  H    0.223974977  -0.836380950   2.012710626
