17
charge=0 charge_a=0 charge_b=0 selection_a=1-5 selection_b=6-17 scaling=2.00 benchmark_Eint=-0.170 benchmark_unit=kcal/mol group=HBCNO
  N    2.143964407   1.791692900  -1.628054134
  N    1.208876599   1.611794522  -2.234195866
  C    0.122491188   1.397824698  -2.903117247
  H   -0.112726982   0.378811438  -3.153031283
  H   -0.404774399   2.252146582  -3.287584386
  B   -0.878164466  -2.296481967   1.980395568
  H   -0.305837698  -2.512212924   0.957400968
  N   -1.761240987  -1.187080184   2.117037993
  H   -1.885118683  -0.578454140   1.323909182
  B   -2.456904945  -0.898889796   3.327766177
  H   -3.185809791   0.038100329   3.418705540
  N   -2.242703448  -1.783438090   4.427794729
  H   -2.722577224  -1.600509727   5.291889517
  B   -1.374062397  -2.912836478   4.356839324
  H   -1.212475619  -3.632710601   5.291111308
  N   -0.706983984  -3.142490113   3.116168347
  H   -0.086899120  -3.930083899   3.042176669
