18
charge=0 charge_a=0 charge_b=0 selection_a=1-4 selection_b=5-18 scaling=2.00 benchmark_Eint=-0.421 benchmark_unit=kcal/mol group=HBCNO
  N    0.425741913   0.059335184  -1.643763941
  N   -0.751956419   0.322665329  -1.384846245
  H    0.869684616  -0.246678570  -0.764549236
  H   -1.197768015   0.630100416  -2.263243472
  B    1.341048268  -1.253525017   4.081987700
  B    0.131608470  -0.087404559   4.241329107
  B    0.773271663  -2.316471097   5.263636951
  B    1.145551285  -0.601694252   5.626522653
  B   -0.241440283  -1.803260691   3.878459126
  H    2.288980162  -1.311418878   3.383820418
  H   -0.047618255   0.937318722   3.692633067
  H    1.188577769  -3.350725569   5.644715167
  H    1.904526615  -0.055183579   6.342525445
  H   -0.766488090  -2.371148474   2.992204708
  H    0.026872045   0.127428150   5.564225509
  H   -1.020684135  -0.771699766   4.230111480
  H    0.516486792  -1.551295203   6.333647306
  H   -0.533914466  -2.453709413   5.017452482
