12
charge=0 charge_a=0 charge_b=0 selection_a=1-3 selection_b=4-12 scaling=2.00 benchmark_Eint=-0.020 benchmark_unit=kcal/mol group=HBCNO
  O    1.828908433  -0.520158791  -0.912607168
  C    0.863077807  -0.031776071  -1.326202327
  O   -0.102991851   0.456635551  -1.739218042
  C   -2.012207375  -0.610153221   4.581553565
  O   -1.787506850   0.495723531   5.426085812
  C   -0.994412211   1.490041024   4.818630042
  H   -2.627428106  -1.319899792   5.128789325
  H   -1.070508522  -1.097811082   4.302822382
  H   -2.539689569  -0.314036364   3.667133669
  H   -0.874651158   2.297019497   5.537063124
  H   -1.473391938   1.886841878   3.915657494
  H   -0.004059899   1.103089637   4.551006670
