18
charge=0 charge_a=0 charge_b=0 selection_a=1-9 selection_b=10-18 scaling=1.50 benchmark_Eint=-0.819 benchmark_unit=kcal/mol group=HBCNO
  C   -1.168563409  -1.036004560  -1.489239283
  O    0.190435391  -0.659608902  -1.523750688
  C    0.358047731   0.688354157  -1.906463378
  H   -1.212332357  -2.076358044  -1.175811554
  H   -1.631813891  -0.942533038  -2.478343088
  H   -1.730504612  -0.421197963  -0.778874309
  H    1.424802095   0.899007896  -1.902012365
  H   -0.145842702   1.361576997  -1.205968495
  H   -0.035539832   0.866471274  -2.913902037
  C   -0.345037419  -0.471890770   3.324364655
  O   -0.086028698   0.850980808   2.908362485
  C    1.296319008   1.129177667   2.854900936
  H   -1.423781542  -0.608778211   3.326890645
  H    0.038937482  -0.652829536   4.335059239
  H    0.109269987  -1.196105807   2.640794583
  H    1.410103486   2.157235557   2.519438773
  H    1.805196610   0.461725203   2.152369728
  H    1.760721880   1.023551641   3.842199044
