12
charge=0 charge_a=0 charge_b=0 selection_a=1-3 selection_b=4-12 scaling=0.80 benchmark_Eint=1.199 benchmark_unit=kcal/mol group=HBCNO
  O    1.828908433  -0.520158791  -0.912607168
  C    0.863077807  -0.031776071  -1.326202327
  O   -0.102991851   0.456635551  -1.739218042
  C   -0.675607399  -0.876447485   1.177339733
  O   -0.450906874   0.229429267   2.021871980
  C    0.342187765   1.223746760   1.414416210
  H   -1.290828130  -1.586194056   1.724575493
  H    0.266091454  -1.364105346   0.898608550
  H   -1.203089593  -0.580330628   0.262919837
  H    0.461948818   2.030725233   2.132849292
  H   -0.136791962   1.620547614   0.511443662
  H    1.332540077   0.836795373   1.146792838
