12
charge=0 charge_a=0 charge_b=0 selection_a=1-3 selection_b=4-12 scaling=1.50 benchmark_Eint=-0.203 benchmark_unit=kcal/mol group=HBCNO
  O    1.828908433  -0.520158791  -0.912607168
  C    0.863077807  -0.031776071  -1.326202327
  O   -0.102991851   0.456635551  -1.739218042
  C   -1.455290718  -0.721109165   3.163131135
  O   -1.230590193   0.384767587   4.007663382
  C   -0.437495554   1.379085080   3.400207612
  H   -2.070511449  -1.430855736   3.710366895
  H   -0.513591865  -1.208767026   2.884399952
  H   -1.982772912  -0.424992308   2.248711239
  H   -0.317734501   2.186063553   4.118640694
  H   -0.916475281   1.775885934   2.497235064
  H    0.552856758   0.992133693   3.132584240
