26
charge=0 charge_a=0 charge_b=0 selection_a=1-10 selection_b=11-26 scaling=0.90 benchmark_Eint=-3.414 benchmark_unit=kcal/mol group=HBCNO
  C   -1.589915607   2.448960226   0.528025929
  C   -1.157489432   1.707237720  -0.714059658
  O   -1.738899209   0.718231561  -1.099301690
  C    0.053617911   2.247185337  -1.435581646
  H   -2.419183160   1.934016176   1.002952364
  H   -1.887564960   3.466627688   0.269165684
  H   -0.754485712   2.528162449   1.224802541
  H    0.932255716   2.118567760  -0.800790566
  H   -0.051364515   3.315868949  -1.625513729
  H    0.205983311   1.712191318  -2.367669219
  B    0.574017366  -0.632455566   0.676244631
  B    0.631860994  -2.062750617   1.662217021
  B    1.948612819  -1.659554189   0.529412881
  B   -0.959915893  -1.680523603   0.838814919
  B    1.438118941  -0.948392237  -0.968899350
  H    0.640860387   0.419362513   1.208404066
  H    0.859487420  -2.055796256   2.817653514
  H    2.971249659  -1.379536983   1.044425985
  H   -1.730858867  -1.253711474   1.627860366
  H    2.254390649  -0.176094125  -1.348544124
  H    1.505881986  -2.830845920   1.049117065
  H   -0.351935850  -2.804343486   1.390552039
  H    2.116650527  -2.101983788  -0.663450888
  H   -1.390023082  -2.289738916  -0.090362582
  H    0.652250471  -1.378385626  -1.743423210
  H   -0.414839327  -0.751466257  -0.079884995
