15
charge=0 charge_a=0 charge_b=0 selection_a=1-3 selection_b=4-15 scaling=1.05 benchmark_Eint=-2.042 benchmark_unit=kcal/mol group=HBCNO
  O   -1.739001865  -2.018235096  -0.917061607
  C   -1.445499472  -1.005519772  -1.399058427
  O   -1.161761426   0.003272832  -1.891843679
  B    1.627194635   2.031469309   0.484621354
  H    2.057320108   3.106299328   0.209782551
  N    0.456349847   1.880445183   1.286635050
  H   -0.007516614   2.708097603   1.618741715
  B   -0.090266325   0.609626362   1.628517297
  H   -1.073257094   0.511874125   2.292465547
  N    0.585463741  -0.545004030   1.128412440
  H    0.222535738  -1.453233080   1.361811289
  B    1.769099633  -0.465768900   0.333023629
  H    2.312428284  -1.446466277  -0.066651613
  N    2.261407767   0.836646512   0.029783072
  H    3.087493018   0.918086453  -0.537160651
