26
charge=0 charge_a=0 charge_b=0 selection_a=1-10 selection_b=11-26 scaling=0.95 benchmark_Eint=-3.876 benchmark_unit=kcal/mol group=HBCNO
  C   -1.589915607   2.448960226   0.528025929
  C   -1.157489432   1.707237720  -0.714059658
  O   -1.738899209   0.718231561  -1.099301690
  C    0.053617911   2.247185337  -1.435581646
  H   -2.419183160   1.934016176   1.002952364
  H   -1.887564960   3.466627688   0.269165684
  H   -0.754485712   2.528162449   1.224802541
  H    0.932255716   2.118567760  -0.800790566
  H   -0.051364515   3.315868949  -1.625513729
  H    0.205983311   1.712191318  -2.367669219
  B    0.631838528  -0.734217430   0.714825433
  B    0.689682156  -2.164512481   1.700797823
  B    2.006433981  -1.761316053   0.567993683
  B   -0.902094731  -1.782285467   0.877395721
  B    1.495940103  -1.050154101  -0.930318548
  H    0.698681549   0.317600649   1.246984868
  H    0.917308582  -2.157558120   2.856234316
  H    3.029070821  -1.481298847   1.083006787
  H   -1.673037705  -1.355473338   1.666441168
  H    2.312211811  -0.277855989  -1.309963322
  H    1.563703148  -2.932607784   1.087697867
  H   -0.294114688  -2.906105350   1.429132841
  H    2.174471689  -2.203745652  -0.624870086
  H   -1.332201920  -2.391500780  -0.051781780
  H    0.710071633  -1.480147490  -1.704842408
  H   -0.357018165  -0.853228121  -0.041304193
