26
charge=0 charge_a=0 charge_b=0 selection_a=1-10 selection_b=11-26 scaling=2.00 benchmark_Eint=-0.409 benchmark_unit=kcal/mol group=HBCNO
  C   -1.589915607   2.448960226   0.528025929
  C   -1.157489432   1.707237720  -0.714059658
  O   -1.738899209   0.718231561  -1.099301690
  C    0.053617911   2.247185337  -1.435581646
  H   -2.419183160   1.934016176   1.002952364
  H   -1.887564960   3.466627688   0.269165684
  H   -0.754485712   2.528162449   1.224802541
  H    0.932255716   2.118567760  -0.800790566
  H   -0.051364515   3.315868949  -1.625513729
  H    0.205983311   1.712191318  -2.367669219
  B    1.846082930  -2.871216562   1.525022262
  B    1.903926558  -4.301511613   2.510994652
  B    3.220678383  -3.898315185   1.378190512
  B    0.312149671  -3.919284599   1.687592550
  B    2.710184505  -3.187153233  -0.120121719
  H    1.912925951  -1.819398483   2.057181697
  H    2.131552984  -4.294557252   3.666431145
  H    4.243315223  -3.618297979   1.893203616
  H   -0.458793303  -3.492472470   2.476637997
  H    3.526456213  -2.414855121  -0.499766493
  H    2.777947550  -5.069606916   1.897894696
  H    0.920129714  -5.043104482   2.239329670
  H    3.388716091  -4.340744784   0.185326743
  H   -0.117957518  -4.528499912   0.758415049
  H    1.924316035  -3.617146622  -0.894645579
  H    0.857226237  -2.990227253   0.768892636
