26
charge=0 charge_a=0 charge_b=0 selection_a=1-10 selection_b=11-26 scaling=1.25 benchmark_Eint=-2.584 benchmark_unit=kcal/mol group=HBCNO
  C   -1.589915607   2.448960226   0.528025929
  C   -1.157489432   1.707237720  -0.714059658
  O   -1.738899209   0.718231561  -1.099301690
  C    0.053617911   2.247185337  -1.435581646
  H   -2.419183160   1.934016176   1.002952364
  H   -1.887564960   3.466627688   0.269165684
  H   -0.754485712   2.528162449   1.224802541
  H    0.932255716   2.118567760  -0.800790566
  H   -0.051364515   3.315868949  -1.625513729
  H    0.205983311   1.712191318  -2.367669219
  B    0.978765500  -1.344788610   0.946310241
  B    1.036609128  -2.775083661   1.932282631
  B    2.353360953  -2.371887233   0.799478491
  B   -0.555167759  -2.392856647   1.108880529
  B    1.842867075  -1.660725281  -0.698833740
  H    1.045608521  -0.292970531   1.478469676
  H    1.264235554  -2.768129300   3.087719124
  H    3.375997793  -2.091870027   1.314491595
  H   -1.326110733  -1.966044518   1.897925976
  H    2.659138783  -0.888427169  -1.078478514
  H    1.910630120  -3.543178964   1.319182675
  H    0.052812284  -3.516676530   1.660617649
  H    2.521398661  -2.814316832  -0.393385278
  H   -0.985274948  -3.002071960   0.179703028
  H    1.056998605  -2.090718670  -1.473357600
  H   -0.010091193  -1.463799301   0.190180615
