26
charge=0 charge_a=0 charge_b=0 selection_a=1-10 selection_b=11-26 scaling=0.80 benchmark_Eint=-0.319 benchmark_unit=kcal/mol group=HBCNO
  C   -1.589915607   2.448960226   0.528025929
  C   -1.157489432   1.707237720  -0.714059658
  O   -1.738899209   0.718231561  -1.099301690
  C    0.053617911   2.247185337  -1.435581646
  H   -2.419183160   1.934016176   1.002952364
  H   -1.887564960   3.466627688   0.269165684
  H   -0.754485712   2.528162449   1.224802541
  H    0.932255716   2.118567760  -0.800790566
  H   -0.051364515   3.315868949  -1.625513729
  H    0.205983311   1.712191318  -2.367669219
  B    0.458375042  -0.428931839   0.599083028
  B    0.516218670  -1.859226890   1.585055418
  B    1.832970495  -1.456030462   0.452251278
  B   -1.075558217  -1.476999876   0.761653316
  B    1.322476617  -0.744868510  -1.046060953
  H    0.525218063   0.622886240   1.131242463
  H    0.743845096  -1.852272529   2.740491911
  H    2.855607335  -1.176013256   0.967264382
  H   -1.846501191  -1.050187747   1.550698763
  H    2.138748325   0.027429602  -1.425705727
  H    1.390239662  -2.627322193   0.971955462
  H   -0.467578174  -2.600819759   1.313390436
  H    2.001008203  -1.898460061  -0.740612491
  H   -1.505665406  -2.086215189  -0.167524185
  H    0.536608147  -1.174861899  -1.820584813
  H   -0.530481651  -0.547942530  -0.157046598
