34
charge=0 charge_a=0 charge_b=0 selection_a=1-22 selection_b=23-34 scaling=0.85 benchmark_Eint=-1.631 benchmark_unit=kcal/mol group=HBCNO
  C    1.034857109  -0.379390664  -3.355358354
  C    1.365700294   0.540417972  -2.193511595
  C    2.803460952   1.019946818  -2.186793620
  O    0.583678352   1.734010941  -2.202815163
  O   -0.812834475   1.361127608  -2.077056896
  C   -0.988053696   0.728372364  -0.808803287
  C   -2.424825388   0.246840002  -0.804810695
  C   -0.654539965   1.648639985   0.350678661
  O   -0.207244493  -0.467625217  -0.803382213
  O    1.189040448  -0.098616730  -0.927973250
  H    1.211598538   0.145068940  -4.291917071
  H   -0.000716626  -0.696066676  -3.320448054
  H    1.673724859  -1.258874243  -3.312246374
  H    3.007005973   1.568035390  -3.103531352
  H    3.471151123   0.163503298  -2.130318106
  H    2.978713515   1.670069255  -1.333725414
  H   -3.093923116   1.102543490  -0.853557008
  H   -2.613577595  -0.302496309   0.114101100
  H   -2.607433891  -0.401356007  -1.657866443
  H   -1.262912901   2.547699024   0.279206136
  H    0.391362271   1.931164232   0.339799024
  H   -0.872390001   1.143711355   1.287711890
  B   -1.640175394  -0.912797965   2.910168434
  H   -2.744149270  -0.835330364   3.350811783
  N   -1.311641532  -1.847243798   1.885868797
  H   -2.029860186  -2.463307179   1.546866398
  B    0.003467243  -1.969751644   1.335035926
  H    0.252588348  -2.780417955   0.503624606
  N    1.003937058  -1.096981849   1.857484142
  H    1.924000306  -1.137693294   1.454867895
  B    0.743337962  -0.133104606   2.870310075
  H    1.594658236   0.593877114   3.275932810
  N   -0.591849632  -0.065309890   3.377695926
  H   -0.798695488   0.603325972   4.099065131
