15
charge=0 charge_a=0 charge_b=0 selection_a=1-3 selection_b=4-15 scaling=1.25 benchmark_Eint=-1.209 benchmark_unit=kcal/mol group=HBCNO
  O   -1.739001865  -2.018235096  -0.917061607
  C   -1.445499472  -1.005519772  -1.399058427
  O   -1.161761426   0.003272832  -1.891843679
  B    2.019542613   2.297825882   0.825827998
  H    2.449668086   3.372655901   0.550989195
  N    0.848697825   2.146801756   1.627841694
  H    0.384831364   2.974454176   1.959948359
  B    0.302081653   0.875982935   1.969723941
  H   -0.680909116   0.778230698   2.633672191
  N    0.977811719  -0.278647457   1.469619084
  H    0.614883716  -1.186876507   1.703017933
  B    2.161447611  -0.199412327   0.674230273
  H    2.704776262  -1.180109704   0.274555031
  N    2.653755745   1.103003085   0.370989716
  H    3.479840996   1.184443026  -0.195954007
