34
charge=0 charge_a=0 charge_b=0 selection_a=1-22 selection_b=23-34 scaling=1.05 benchmark_Eint=-3.475 benchmark_unit=kcal/mol group=HBCNO
  C    1.034857109  -0.379390664  -3.355358354
  C    1.365700294   0.540417972  -2.193511595
  C    2.803460952   1.019946818  -2.186793620
  O    0.583678352   1.734010941  -2.202815163
  O   -0.812834475   1.361127608  -2.077056896
  C   -0.988053696   0.728372364  -0.808803287
  C   -2.424825388   0.246840002  -0.804810695
  C   -0.654539965   1.648639985   0.350678661
  O   -0.207244493  -0.467625217  -0.803382213
  O    1.189040448  -0.098616730  -0.927973250
  H    1.211598538   0.145068940  -4.291917071
  H   -0.000716626  -0.696066676  -3.320448054
  H    1.673724859  -1.258874243  -3.312246374
  H    3.007005973   1.568035390  -3.103531352
  H    3.471151123   0.163503298  -2.130318106
  H    2.978713515   1.670069255  -1.333725414
  H   -3.093923116   1.102543490  -0.853557008
  H   -2.613577595  -0.302496309   0.114101100
  H   -2.607433891  -0.401356007  -1.657866443
  H   -1.262912901   2.547699024   0.279206136
  H    0.391362271   1.931164232   0.339799024
  H   -0.872390001   1.143711355   1.287711890
  B   -1.705759979  -1.132848825   3.430786990
  H   -2.809733855  -1.055381224   3.871430339
  N   -1.377226117  -2.067294658   2.406487353
  H   -2.095444771  -2.683358039   2.067484954
  B   -0.062117342  -2.189802504   1.855654482
  H    0.187003763  -3.000468815   1.024243162
  N    0.938352473  -1.317032709   2.378102698
  H    1.858415721  -1.357744154   1.975486451
  B    0.677753377  -0.353155466   3.390928631
  H    1.529073651   0.373826254   3.796551366
  N   -0.657434217  -0.285360750   3.898314482
  H   -0.864280073   0.383275112   4.619683687
