26
charge=0 charge_a=0 charge_b=0 selection_a=1-10 selection_b=11-26 scaling=0.85 benchmark_Eint=-2.343 benchmark_unit=kcal/mol group=HBCNO
  C   -1.589915607   2.448960226   0.528025929
  C   -1.157489432   1.707237720  -0.714059658
  O   -1.738899209   0.718231561  -1.099301690
  C    0.053617911   2.247185337  -1.435581646
  H   -2.419183160   1.934016176   1.002952364
  H   -1.887564960   3.466627688   0.269165684
  H   -0.754485712   2.528162449   1.224802541
  H    0.932255716   2.118567760  -0.800790566
  H   -0.051364515   3.315868949  -1.625513729
  H    0.205983311   1.712191318  -2.367669219
  B    0.516196204  -0.530693703   0.637663830
  B    0.574039832  -1.960988754   1.623636220
  B    1.890791657  -1.557792326   0.490832080
  B   -1.017737055  -1.578761740   0.800234118
  B    1.380297779  -0.846630374  -1.007480151
  H    0.583039225   0.521124376   1.169823265
  H    0.801666258  -1.954034393   2.779072713
  H    2.913428497  -1.277775120   1.005845184
  H   -1.788680029  -1.151949611   1.589279565
  H    2.196569487  -0.074332262  -1.387124925
  H    1.448060824  -2.729084057   1.010536264
  H   -0.409757012  -2.702581623   1.351971238
  H    2.058829365  -2.000221925  -0.702031689
  H   -1.447844244  -2.187977053  -0.128943383
  H    0.594429309  -1.276623763  -1.782004011
  H   -0.472660489  -0.649704394  -0.118465796
