15
charge=0 charge_a=0 charge_b=0 selection_a=1-3 selection_b=4-15 scaling=0.90 benchmark_Eint=-1.568 benchmark_unit=kcal/mol group=HBCNO
  O   -1.739001865  -2.018235096  -0.917061607
  C   -1.445499472  -1.005519772  -1.399058427
  O   -1.161761426   0.003272832  -1.891843679
  B    1.332933652   1.831701880   0.228716371
  H    1.763059125   2.906531899  -0.046122432
  N    0.162088864   1.680677754   1.030730067
  H   -0.301777597   2.508330174   1.362836732
  B   -0.384527308   0.409858933   1.372612314
  H   -1.367518077   0.312106696   2.036560564
  N    0.291202758  -0.744771459   0.872507457
  H   -0.071725245  -1.653000509   1.105906306
  B    1.474838650  -0.665536329   0.077118646
  H    2.018167301  -1.646233706  -0.322556596
  N    1.967146784   0.636879083  -0.226121911
  H    2.793232035   0.718319024  -0.793065634
