26
charge=0 charge_a=0 charge_b=0 selection_a=1-10 selection_b=11-26 scaling=1.05 benchmark_Eint=-3.818 benchmark_unit=kcal/mol group=HBCNO
  C   -1.589915607   2.448960226   0.528025929
  C   -1.157489432   1.707237720  -0.714059658
  O   -1.738899209   0.718231561  -1.099301690
  C    0.053617911   2.247185337  -1.435581646
  H   -2.419183160   1.934016176   1.002952364
  H   -1.887564960   3.466627688   0.269165684
  H   -0.754485712   2.528162449   1.224802541
  H    0.932255716   2.118567760  -0.800790566
  H   -0.051364515   3.315868949  -1.625513729
  H    0.205983311   1.712191318  -2.367669219
  B    0.747480852  -0.937741156   0.791987035
  B    0.805324480  -2.368036207   1.777959425
  B    2.122076305  -1.964839779   0.645155285
  B   -0.786452407  -1.985809193   0.954557323
  B    1.611582427  -1.253677827  -0.853156946
  H    0.814323873   0.114076923   1.324146470
  H    1.032950906  -2.361081846   2.933395918
  H    3.144713145  -1.684822573   1.160168389
  H   -1.557395381  -1.558997064   1.743602770
  H    2.427854135  -0.481379715  -1.232801720
  H    1.679345472  -3.136131510   1.164859469
  H   -0.178472364  -3.109629076   1.506294443
  H    2.290114013  -2.407269378  -0.547708484
  H   -1.216559596  -2.595024506   0.025379822
  H    0.825713957  -1.683671216  -1.627680806
  H   -0.241375841  -1.056751847   0.035857409
