28
charge=0 charge_a=0 charge_b=0 selection_a=1-12 selection_b=13-28 scaling=2.00 benchmark_Eint=-0.391 benchmark_unit=kcal/mol group=HBCNO
  B    1.345679007   0.511889458  -1.701667636
  H    2.528840179   0.581810955  -1.601089448
  N    0.676722954  -0.745902050  -1.768898591
  H    1.228527254  -1.585709864  -1.733501055
  B   -0.739218670  -0.867452850  -1.891544563
  H   -1.269546981  -1.929503532  -1.954601235
  N   -1.493359475   0.344514839  -1.910788820
  H   -2.493718835   0.285419994  -1.993569051
  B   -0.891524054   1.637150137  -1.846367709
  H   -1.545570707   2.629919477  -1.875005652
  N    0.530487724   1.682753179  -1.734069318
  H    0.978931342   2.581277092  -1.684248146
  B    0.527698981  -1.746212631   5.568346497
  B    0.933116207  -0.330114589   4.640476409
  B   -0.663825441  -1.103721920   4.498081648
  B    2.194310466  -1.644886683   4.723004553
  B   -0.656885326  -2.833812422   4.572257393
  H    0.438209949  -1.648171599   6.740188556
  H    1.000147361   0.753405969   5.096240724
  H   -1.559361465  -0.459686599   4.912649322
  H    3.070356499  -1.337282218   5.456925614
  H   -1.649519441  -3.226909608   5.087199272
  H    0.068513285  -0.340652283   3.654854335
  H    1.922376190  -0.568402651   3.893939357
  H   -1.048505886  -1.942876634   3.609696599
  H    2.463299518  -2.362519556   3.808979326
  H   -0.025461934  -3.579557306   3.901016346
  H    1.310366198  -2.647984289   5.201828721
