24
charge=0 charge_a=0 charge_b=0 selection_a=1-8 selection_b=9-24 scaling=0.90 benchmark_Eint=-1.925 benchmark_unit=kcal/mol group=HBCNO
  B    0.635562288   0.618866548  -1.713479608
  H    1.635276297   0.481976812  -2.331495415
  H    0.554413869   1.413381403  -0.838411991
  H    0.247717770  -0.552002054  -1.276943962
  B   -0.769004972  -0.360820561  -2.081722296
  H   -1.752184630  -0.198673915  -1.441775228
  H   -0.719579955  -1.161979207  -2.951131601
  H   -0.359594558   0.795811673  -2.546514831
  B    0.492634618  -1.229874425   2.443559671
  B    0.657195626   0.475953609   2.139834553
  B   -0.901122062  -0.362637459   1.909775623
  B    1.975080674  -0.601948855   1.489197290
  B   -0.789275070  -1.964312926   1.261106037
  H    0.602581138  -1.616743089   3.551885207
  H    0.741845765   1.283091966   2.992547675
  H   -1.741095857  -0.049984625   2.674451700
  H    2.955553206  -0.517067956   2.145819703
  H   -1.652577225  -2.648582831   1.696908887
  H   -0.366827164   0.756421645   1.365339857
  H    1.513480960   0.682803699   1.236700656
  H   -1.393956299  -0.816159053   0.817011823
  H    2.106182598  -0.856311970   0.330954456
  H   -0.245668962  -2.298774185   0.261601312
  H    1.244065491  -1.814111650   1.635979737
