28
charge=0 charge_a=0 charge_b=0 selection_a=1-12 selection_b=13-28 scaling=0.90 benchmark_Eint=-3.128 benchmark_unit=kcal/mol group=HBCNO
  B    1.345679007   0.511889458  -1.701667636
  H    2.528840179   0.581810955  -1.601089448
  N    0.676722954  -0.745902050  -1.768898591
  H    1.228527254  -1.585709864  -1.733501055
  B   -0.739218670  -0.867452850  -1.891544563
  H   -1.269546981  -1.929503532  -1.954601235
  N   -1.493359475   0.344514839  -1.910788820
  H   -2.493718835   0.285419994  -1.993569051
  B   -0.891524054   1.637150137  -1.846367709
  H   -1.545570707   2.629919477  -1.875005652
  N    0.530487724   1.682753179  -1.734069318
  H    0.978931342   2.581277092  -1.684248146
  B    0.266425460  -0.853052311   2.577385131
  B    0.671842686   0.563045731   1.649515043
  B   -0.925098962  -0.210561600   1.507120282
  B    1.933036945  -0.751726363   1.732043187
  B   -0.918158847  -1.940652102   1.581296027
  H    0.176936428  -0.755011279   3.749227190
  H    0.738873840   1.646566289   2.105279358
  H   -1.820634986   0.433473721   1.921687956
  H    2.809082978  -0.444121898   2.465964248
  H   -1.910792962  -2.333749288   2.096237906
  H   -0.192760236   0.552508037   0.663892969
  H    1.661102669   0.324757669   0.902977991
  H   -1.309779407  -1.049716314   0.618735233
  H    2.202025997  -1.469359236   0.818017960
  H   -0.286735455  -2.686396986   0.910054980
  H    1.049092677  -1.754823969   2.210867355
