28
charge=0 charge_a=0 charge_b=0 selection_a=1-12 selection_b=13-28 scaling=0.80 benchmark_Eint=1.133 benchmark_unit=kcal/mol group=HBCNO
  B    1.345679007   0.511889458  -1.701667636
  H    2.528840179   0.581810955  -1.601089448
  N    0.676722954  -0.745902050  -1.768898591
  H    1.228527254  -1.585709864  -1.733501055
  B   -0.739218670  -0.867452850  -1.891544563
  H   -1.269546981  -1.929503532  -1.954601235
  N   -1.493359475   0.344514839  -1.910788820
  H   -2.493718835   0.285419994  -1.993569051
  B   -0.891524054   1.637150137  -1.846367709
  H   -1.545570707   2.629919477  -1.875005652
  N    0.530487724   1.682753179  -1.734069318
  H    0.978931342   2.581277092  -1.684248146
  B    0.242673321  -0.771855919   2.305479553
  B    0.648090547   0.644242123   1.377609465
  B   -0.948851101  -0.129365208   1.235214704
  B    1.909284806  -0.670529971   1.460137609
  B   -0.941910986  -1.859455710   1.309390449
  H    0.153184289  -0.673814887   3.477321612
  H    0.715121701   1.727762681   1.833373780
  H   -1.844387125   0.514670113   1.649782378
  H    2.785330839  -0.362925506   2.194058670
  H   -1.934545101  -2.252552896   1.824332328
  H   -0.216512375   0.633704429   0.391987391
  H    1.637350530   0.405954061   0.631072413
  H   -1.333531546  -0.968519922   0.346829655
  H    2.178273858  -1.388162844   0.546112382
  H   -0.310487594  -2.605200594   0.638149402
  H    1.025340538  -1.673627577   1.938961777
