28
charge=0 charge_a=0 charge_b=0 selection_a=1-12 selection_b=13-28 scaling=1.10 benchmark_Eint=-3.667 benchmark_unit=kcal/mol group=HBCNO
  B    1.345679007   0.511889458  -1.701667636
  H    2.528840179   0.581810955  -1.601089448
  N    0.676722954  -0.745902050  -1.768898591
  H    1.228527254  -1.585709864  -1.733501055
  B   -0.739218670  -0.867452850  -1.891544563
  H   -1.269546981  -1.929503532  -1.954601235
  N   -1.493359475   0.344514839  -1.910788820
  H   -2.493718835   0.285419994  -1.993569051
  B   -0.891524054   1.637150137  -1.846367709
  H   -1.545570707   2.629919477  -1.875005652
  N    0.530487724   1.682753179  -1.734069318
  H    0.978931342   2.581277092  -1.684248146
  B    0.313929736  -1.015445097   3.121196289
  B    0.719346962   0.400652945   2.193326201
  B   -0.877594686  -0.372954386   2.050931440
  B    1.980541221  -0.914119149   2.275854345
  B   -0.870654571  -2.103044888   2.125107185
  H    0.224440704  -0.917404065   4.293038348
  H    0.786378116   1.484173503   2.649090516
  H   -1.773130710   0.271080935   2.465499114
  H    2.856587254  -0.606514684   3.009775406
  H   -1.863288686  -2.496142074   2.640049064
  H   -0.145255960   0.390115251   1.207704127
  H    1.708606945   0.162364883   1.446789149
  H   -1.262275131  -1.212109100   1.162546391
  H    2.249530273  -1.631752022   1.361829118
  H   -0.239231179  -2.848789772   1.453866138
  H    1.096596953  -1.917216755   2.754678513
