28
charge=0 charge_a=0 charge_b=0 selection_a=1-12 selection_b=13-28 scaling=0.95 benchmark_Eint=-3.823 benchmark_unit=kcal/mol group=HBCNO
  B    1.345679007   0.511889458  -1.701667636
  H    2.528840179   0.581810955  -1.601089448
  N    0.676722954  -0.745902050  -1.768898591
  H    1.228527254  -1.585709864  -1.733501055
  B   -0.739218670  -0.867452850  -1.891544563
  H   -1.269546981  -1.929503532  -1.954601235
  N   -1.493359475   0.344514839  -1.910788820
  H   -2.493718835   0.285419994  -1.993569051
  B   -0.891524054   1.637150137  -1.846367709
  H   -1.545570707   2.629919477  -1.875005652
  N    0.530487724   1.682753179  -1.734069318
  H    0.978931342   2.581277092  -1.684248146
  B    0.278301529  -0.893650508   2.713337921
  B    0.683718755   0.522447534   1.785467833
  B   -0.913222893  -0.251159797   1.643073072
  B    1.944913014  -0.792324560   1.867995977
  B   -0.906282778  -1.981250299   1.717248817
  H    0.188812497  -0.795609476   3.885179980
  H    0.750749909   1.605968092   2.241232148
  H   -1.808758917   0.392875524   2.057640746
  H    2.820959047  -0.484720095   2.601917038
  H   -1.898916893  -2.374347485   2.232190696
  H   -0.180884167   0.511909840   0.799845759
  H    1.672978738   0.284159472   1.038930781
  H   -1.297903338  -1.090314511   0.754688023
  H    2.213902066  -1.509957433   0.953970750
  H   -0.274859386  -2.726995183   1.046007770
  H    1.060968746  -1.795422166   2.346820145
