28
charge=0 charge_a=0 charge_b=0 selection_a=1-12 selection_b=13-28 scaling=1.05 benchmark_Eint=-3.922 benchmark_unit=kcal/mol group=HBCNO
  B    1.345679007   0.511889458  -1.701667636
  H    2.528840179   0.581810955  -1.601089448
  N    0.676722954  -0.745902050  -1.768898591
  H    1.228527254  -1.585709864  -1.733501055
  B   -0.739218670  -0.867452850  -1.891544563
  H   -1.269546981  -1.929503532  -1.954601235
  N   -1.493359475   0.344514839  -1.910788820
  H   -2.493718835   0.285419994  -1.993569051
  B   -0.891524054   1.637150137  -1.846367709
  H   -1.545570707   2.629919477  -1.875005652
  N    0.530487724   1.682753179  -1.734069318
  H    0.978931342   2.581277092  -1.684248146
  B    0.302053667  -0.974846900   2.985243499
  B    0.707470893   0.441251142   2.057373411
  B   -0.889470755  -0.332356189   1.914978650
  B    1.968665152  -0.873520952   2.139901555
  B   -0.882530640  -2.062446691   1.989154395
  H    0.212564635  -0.876805868   4.157085558
  H    0.774502047   1.524771700   2.513137726
  H   -1.785006779   0.311679132   2.329546324
  H    2.844711185  -0.565916487   2.873822616
  H   -1.875164755  -2.455543877   2.504096274
  H   -0.157132029   0.430713448   1.071751337
  H    1.696730876   0.202963080   1.310836359
  H   -1.274151200  -1.171510903   1.026593601
  H    2.237654204  -1.591153825   1.225876328
  H   -0.251107248  -2.808191575   1.317913348
  H    1.084720884  -1.876618558   2.618725723
