28
charge=0 charge_a=0 charge_b=0 selection_a=1-12 selection_b=13-28 scaling=1.50 benchmark_Eint=-1.343 benchmark_unit=kcal/mol group=HBCNO
  B    1.345679007   0.511889458  -1.701667636
  H    2.528840179   0.581810955  -1.601089448
  N    0.676722954  -0.745902050  -1.768898591
  H    1.228527254  -1.585709864  -1.733501055
  B   -0.739218670  -0.867452850  -1.891544563
  H   -1.269546981  -1.929503532  -1.954601235
  N   -1.493359475   0.344514839  -1.910788820
  H   -2.493718835   0.285419994  -1.993569051
  B   -0.891524054   1.637150137  -1.846367709
  H   -1.545570707   2.629919477  -1.875005652
  N    0.530487724   1.682753179  -1.734069318
  H    0.978931342   2.581277092  -1.684248146
  B    0.408938290  -1.340230668   4.208818604
  B    0.814355516   0.075867374   3.280948516
  B   -0.782586132  -0.697739957   3.138553755
  B    2.075549775  -1.238904720   3.363476660
  B   -0.775646017  -2.427830459   3.212729500
  H    0.319449258  -1.242189636   5.380660663
  H    0.881386670   1.159387932   3.736712831
  H   -1.678122156  -0.053704636   3.553121429
  H    2.951595808  -0.931300255   4.097397721
  H   -1.768280132  -2.820927645   3.727671379
  H   -0.050247406   0.065329680   2.295326442
  H    1.803615499  -0.162420688   2.534411464
  H   -1.167266577  -1.536894671   2.250168706
  H    2.344538827  -1.956537593   2.449451433
  H   -0.144222625  -3.173575343   2.541488453
  H    1.191605507  -2.242002326   3.842300828
