6
charge=0 charge_a=0 charge_b=0 selection_a=1-4 selection_b=5-6 scaling=1.25 benchmark_Eint=-0.324 benchmark_unit=kcal/mol group=PS
  P   -0.901758548   0.789787111  -0.322509815
  P    1.269188708   0.560551068  -0.036414178
  P    0.131900850  -0.981386167  -1.123212291
  P   -0.128179292  -0.748665081   1.051263577
  H    0.915174995   2.294110444  -4.371322518
  H    1.110457604   1.877190656  -3.789355449
