6
charge=0 charge_a=0 charge_b=0 selection_a=1-4 selection_b=5-6 scaling=1.05 benchmark_Eint=-0.288 benchmark_unit=kcal/mol group=PS
  P    1.188441748   0.059872325   0.136750560
  P   -0.792710844   0.140319208  -0.282422831
  H    1.084158452   0.877925887   1.297991971
  H   -0.692675146  -0.678683241  -1.442873267
  H   -3.636097438  -1.713063067  -0.135123117
  H   -3.887787705  -2.310335706  -0.496532384
