19
charge=0 charge_a=0 charge_b=0 selection_a=1-11 selection_b=12-19 scaling=1.50 benchmark_Eint=-0.846 benchmark_unit=kcal/mol group=PS
  C   -1.365675171  -2.577366908  -0.430401422
  C   -0.979527676  -1.857424272   0.696835586
  C   -0.424655480  -0.589783926   0.636514846
  P   -0.120767523   0.301593999  -0.817161606
  C   -0.691689507  -0.830676462  -1.998802531
  C   -1.225773646  -2.080932615  -1.720805366
  H   -1.791370787  -3.562072624  -0.296277323
  H   -1.122331160  -2.316347970   1.667747062
  H   -0.152637914  -0.101996699   1.563391215
  H   -0.621609639  -0.527786782  -3.036340147
  H   -1.550449694  -2.703114091  -2.545954563
  C    0.661578715   3.712588036   3.175741235
  C    0.792378780   4.133650410   1.920103278
  C    2.236335489   3.507032874   1.860859347
  C    2.104795412   3.086283322   3.116573311
  H   -0.111818526   3.774120075   3.924155686
  H    0.174123771   4.677167447   1.225592380
  H    3.005851945   3.448524304   1.109584550
  H    2.728123371   2.542617187   3.807949898
