21
charge=0 charge_a=0 charge_b=0 selection_a=1-4 selection_b=5-21 scaling=1.05 benchmark_Eint=-1.278 benchmark_unit=kcal/mol group=PS
  P    0.434921842   1.254137584   1.101180261
  H    1.487471403   0.312289154   1.212675511
  H    0.880096053   2.018155823   2.209273343
  H   -0.458607811   0.478115822   1.880200240
  C   -1.778224639  -0.963600256  -1.876936232
  C   -0.686921256  -2.040583363  -1.859707673
  C   -0.555380609  -2.614774553  -0.444081941
  C   -1.063225603  -3.165572660  -2.831054028
  C    0.648769442  -1.421190842  -2.287855895
  H   -2.739809783  -1.376665320  -1.568962891
  H   -1.898153456  -0.546116745  -2.877525322
  H   -1.531422539  -0.143547631  -1.201984905
  H   -1.493577155  -3.063955505  -0.115577670
  H   -0.289210334  -1.837967443   0.273080986
  H    0.216795762  -3.384226012  -0.404009121
  H   -2.011907143  -3.624655298  -2.549450525
  H   -0.302140796  -3.947105364  -2.839097376
  H   -1.163966756  -2.785609278  -3.848554455
  H    0.936247338  -0.608970280  -1.619757304
  H    0.583993901  -1.013791597  -3.297611176
  H    1.446406998  -2.165354193  -2.277128084
