11
charge=0 charge_a=0 charge_b=0 selection_a=1-4 selection_b=5-11 scaling=0.80 benchmark_Eint=1.419 benchmark_unit=kcal/mol group=PS
  P    0.249989303   1.289786471  -0.724751165
  P   -0.813318599  -0.225003873  -1.549528425
  H    0.185162046   2.107671099  -1.890267312
  H   -0.745315531  -1.039915644  -0.385333713
  C   -0.293448548  -0.802063012   2.031461158
  C    0.753191075  -0.896777650   1.456011663
  C    2.018038031  -1.004838145   0.749761448
  H   -1.218482214  -0.714698517   2.542525076
  H    2.733483070  -1.598664019   1.318606675
  H    2.449516291  -0.018476949   0.580159129
  H    1.879892057  -1.478502008  -0.222253160
