19
charge=0 charge_a=0 charge_b=0 selection_a=1-11 selection_b=12-19 scaling=1.05 benchmark_Eint=-2.802 benchmark_unit=kcal/mol group=PS
  C   -1.365675171  -2.577366908  -0.430401422
  C   -0.979527676  -1.857424272   0.696835586
  C   -0.424655480  -0.589783926   0.636514846
  P   -0.120767523   0.301593999  -0.817161606
  C   -0.691689507  -0.830676462  -1.998802531
  C   -1.225773646  -2.080932615  -1.720805366
  H   -1.791370787  -3.562072624  -0.296277323
  H   -1.122331160  -2.316347970   1.667747062
  H   -0.152637914  -0.101996699   1.563391215
  H   -0.621609639  -0.527786782  -3.036340147
  H   -1.550449694  -2.703114091  -2.545954563
  C    0.205636478   2.726998083   2.498571731
  C    0.336436543   3.148060457   1.242933774
  C    1.780393252   2.521442921   1.183689843
  C    1.648853175   2.100693369   2.439403807
  H   -0.567760763   2.788530122   3.246986182
  H   -0.281818466   3.691577494   0.548422876
  H    2.549909708   2.462934351   0.432415046
  H    2.272181134   1.557027234   3.130780394
