22
charge=0 charge_a=0 charge_b=0 selection_a=1-11 selection_b=12-22 scaling=0.85 benchmark_Eint=-0.813 benchmark_unit=kcal/mol group=PS
  C    0.116807910   1.225668894  -1.506979599
  C    1.058650264   0.350092448  -0.976746082
  C    0.721718792  -0.847181327  -0.364933308
  P   -0.890548436  -1.448981746  -0.158890192
  C   -1.793732424  -0.170923889  -0.902896072
  C   -1.249927059   0.971493066  -1.469096075
  H    0.461185312   2.142414314  -1.964699127
  H    2.104439013   0.623679846  -1.044311665
  H    1.523373862  -1.462556404   0.024116282
  H   -2.870970117  -0.280574674  -0.915432597
  H   -1.917907505   1.706467494  -1.901094639
  C   -0.076333883   0.267567224   2.867222245
  C   -0.680058112   1.357961098   1.987018413
  C   -2.205578274   1.357119434   2.014448148
  H    1.012875483   0.274017877   2.822008358
  H   -0.414597869  -0.718980621   2.547701923
  H   -0.368755655   0.396272454   3.910786542
  H   -0.337390463   1.224895220   0.961059278
  H   -0.310012571   2.334170540   2.309571799
  H   -2.597605033   0.397852242   1.674639349
  H   -2.618199255   2.131205323   1.367114852
  H   -2.581724882   1.529675955   3.024287550
