16
charge=0 charge_a=0 charge_b=0 selection_a=1-4 selection_b=5-16 scaling=1.10 benchmark_Eint=-3.477 benchmark_unit=kcal/mol group=PS
  P    0.740343242  -0.109666067  -2.198757453
  P   -1.088000779   0.144436434  -1.361055529
  H    1.007098231   1.285254183  -2.302514125
  H   -1.354841177  -1.250553498  -1.258196036
  C    1.784876068  -1.324023431   1.363334694
  C    0.542793192  -1.083908042   1.931384124
  C    0.109253021   0.224448831   2.128358691
  C    0.930816200   1.291378823   1.779614914
  C    2.170869608   1.051333040   1.207088984
  C    2.593707291  -0.256832470   0.986683145
  H    2.118131737  -2.338166883   1.196236159
  H   -0.093486461  -1.910747997   2.212972017
  H   -0.860944330   0.411508823   2.565630313
  H    0.593975410   2.305594871   1.938917642
  H    2.805954401   1.878215025   0.922866941
  H    3.557468767  -0.443739048   0.535302509
