18
charge=0 charge_a=0 charge_b=0 selection_a=1-6 selection_b=7-18 scaling=0.80 benchmark_Eint=1.562 benchmark_unit=kcal/mol group=PS
  P   -1.686583569   0.251249359   0.850504826
  P   -0.272557356  -0.597198981   2.373014024
  H   -2.744585165  -0.604225219   1.256554669
  H   -1.284525773  -0.619854603  -0.189233298
  H   -1.017871642  -0.096801038   3.473162726
  H    0.601647784   0.518499094   2.373939181
  C    1.347845211   0.656065843  -0.121511099
  C    0.596097868   1.166789517  -1.173269218
  C    0.017395009   0.304053915  -2.096283058
  C    0.186618600  -1.069392513  -1.964761528
  C    0.935500823  -1.580369301  -0.910812795
  C    1.518077473  -0.717478737   0.009849553
  H    1.797062621   1.327248949   0.596607773
  H    0.458158032   2.234142038  -1.270126538
  H   -0.569212368   0.700862126  -2.912655169
  H   -0.267059640  -1.740704161  -2.680141809
  H    1.062152844  -2.648307700  -0.804557851
  H    2.097492665  -1.115186878   0.830480213
