29
charge=0 charge_a=0 charge_b=0 selection_a=1-11 selection_b=12-29 scaling=1.25 benchmark_Eint=-1.983 benchmark_unit=kcal/mol group=PS
  C    2.030302967   1.050348936  -1.257717547
  C    2.312918193   0.743421549   0.068908380
  C    1.977926985  -0.466994216   0.655487412
  P    1.165283471  -1.775317262  -0.138423659
  C    0.963690382  -1.097819218  -1.720894480
  C    1.383777673   0.163712660  -2.112528005
  H    2.322314596   2.018620613  -1.639408481
  H    2.815980100   1.491022043   0.669741671
  H    2.234264928  -0.614659367   1.697175647
  H    0.462378348  -1.717122330  -2.454272378
  H    1.198192803   0.480925886  -3.131348390
  C   -2.226371920   1.083271763   0.736547802
  C   -1.937983578   1.024299680   2.237273513
  C   -3.230407842   0.989330664   3.055233492
  C   -4.136007328  -0.163664026   2.615989732
  C   -4.425174660  -0.107060896   1.114127773
  C   -3.130936348  -0.069787987   0.299210626
  H   -1.294950092   1.065788636   0.173069353
  H   -2.717948887   2.033188034   0.503221811
  H   -1.320198224   1.872812362   2.537092243
  H   -1.353776597   0.124769934   2.450038394
  H   -3.765342950   1.934898638   2.922416431
  H   -3.003676916   0.906887821   4.119740525
  H   -5.069008546  -0.149041822   3.182107586
  H   -3.643887165  -1.112847836   2.849048168
  H   -5.012813808   0.790353799   0.896591897
  H   -5.037106328  -0.959934262   0.815182357
  H   -3.354020224   0.008107221  -0.766439793
  H   -2.593516505  -1.012592969   0.435239951
