24
charge=0 charge_a=0 charge_b=0 selection_a=1-6 selection_b=7-24 scaling=1.05 benchmark_Eint=-2.280 benchmark_unit=kcal/mol group=PS
  P   -0.888652820   1.083874908   2.175578789
  P   -1.891164832  -0.922866200   2.038089548
  H    0.430735392   0.567293506   2.153520493
  H   -0.931082668   1.096482180   3.593629010
  H   -2.370926149  -0.734567025   0.717760412
  H   -3.097633734  -0.449833854   2.615521371
  C    1.628579947   0.439153898  -3.516381646
  C    0.274991854  -0.271806832  -3.450241926
  C    0.204819338  -1.229725143  -2.259032697
  C    0.526155829  -0.510289308  -0.948197809
  C    1.879127184   0.199510554  -1.011808886
  C    1.948514129   1.157013233  -2.203250690
  H    1.643553453   1.146582777  -4.347077837
  H    2.410533582  -0.298652426  -3.720718885
  H    0.084389256  -0.810139958  -4.380070951
  H   -0.517850745   0.476333451  -3.354463034
  H    0.923503356  -2.041258438  -2.407544046
  H   -0.781361156  -1.693701292  -2.202899080
  H    0.506883974  -1.216225153  -0.115954886
  H   -0.253701402   0.232091251  -0.752695919
  H    2.672159722  -0.548628107  -1.104176162
  H    2.066705405   0.739390789  -0.082191062
  H    2.933762942   1.622919586  -2.256983550
  H    1.228047994   1.966588801  -2.052340626
