15
charge=0 charge_a=0 charge_b=0 selection_a=1-4 selection_b=5-15 scaling=1.05 benchmark_Eint=-2.783 benchmark_unit=kcal/mol group=PS
  P   -0.084910345  -0.065011757  -1.153456601
  P   -1.360294250  -1.475918463  -1.859202014
  H   -1.101705622   0.880155075  -0.851528342
  H   -0.326417511  -2.408649304  -2.159648027
  C    2.077686912   0.904460348   1.754087351
  C    0.805832114   0.198745007   2.119884562
  C   -0.202562930   1.090511311   2.141496925
  C    0.312398800   2.410574081   1.779961526
  C    1.632549052   2.321555320   1.543963514
  H    2.541482441   0.480655774   0.859189642
  H    2.824595167   0.828353676   2.551472716
  H    0.740311816  -0.853763999   2.341012850
  H   -1.233825797   0.877648093   2.376768343
  H   -0.288426530   3.304276788   1.712574041
  H    2.291849657   3.123789610   1.254954214
