28
charge=0 charge_a=0 charge_b=0 selection_a=1-11 selection_b=12-28 scaling=1.00 benchmark_Eint=-2.879 benchmark_unit=kcal/mol group=PS
  C   -1.140026088   2.137466646   0.626253478
  C    0.127476811   2.323204513   0.085311113
  C    0.472998191   1.919225385  -1.194807994
  P   -0.585459977   1.130445921  -2.318048370
  C   -2.036219009   1.056453195  -1.372294195
  C   -2.175035660   1.531106564  -0.077229898
  H   -1.327354832   2.475507520   1.635723807
  H    0.879130279   2.803303722   0.699750499
  H    1.486622889   2.102562037  -1.529087616
  H   -2.897190211   0.594307155  -1.839084094
  H   -3.132744392   1.422793965   0.416775389
  C    1.721889803  -3.068406568   1.868760884
  C    1.351228258  -1.692452162   1.304014990
  C   -0.059129984  -1.745479204   0.705538236
  C    1.388831214  -0.651067442   2.428939214
  C    2.353903813  -1.300040573   0.212310340
  H    1.022664469  -3.372155465   2.649190006
  H    2.723341408  -3.058023251   2.301546488
  H    1.702521126  -3.829386118   1.087368157
  H   -0.793661321  -2.024742469   1.462528784
  H   -0.113630948  -2.478485051  -0.100435461
  H   -0.348798525  -0.778629324   0.297825667
  H    0.683498107  -0.906303045   3.221220168
  H    1.125571288   0.337046178   2.051946237
  H    2.383634049  -0.590062358   2.872769103
  H    2.348589424  -2.025998366  -0.601863266
  H    3.367993595  -1.251658967   0.611968535
  H    2.108276296  -0.325570713  -0.208862390
