24
charge=0 charge_a=0 charge_b=0 selection_a=1-4 selection_b=5-24 scaling=0.95 benchmark_Eint=-1.713 benchmark_unit=kcal/mol group=PS
  P    1.738150796   1.083481706  -1.090226209
  P    0.404410134  -0.291086858  -1.749088734
  H    2.849300885   0.465372411  -1.731447279
  H   -0.710105233   0.322966202  -1.110642249
  C    0.510881703  -1.523394792   1.856077029
  C   -0.479633852  -0.669721468   2.675946041
  C   -0.423128356   0.801282100   2.245194462
  C   -1.892936353  -1.207517795   2.418717746
  C   -0.171565492  -0.774992271   4.174744847
  C    1.982339541  -1.133709553   1.944458717
  H    0.200613839  -1.490765260   0.807883219
  H    0.398537115  -2.565360076   2.167119362
  H    0.552348557   1.244067691   2.440508507
  H   -0.630099570   0.906372262   1.180006025
  H   -1.165767260   1.386550377   2.788655672
  H   -1.974529552  -2.253605904   2.717210820
  H   -2.149399186  -1.140811434   1.360383693
  H   -2.636033835  -0.639736889   2.979957173
  H   -0.187497764  -1.814715983   4.505190992
  H    0.806530629  -0.360357277   4.415318868
  H   -0.912987478  -0.227531831   4.757933594
  H    2.154608393  -0.120456714   1.582555313
  H    2.357765379  -1.190254977   2.965553976
  H    2.589420804  -1.802371921   1.334503361
