13
charge=0 charge_a=0 charge_b=0 selection_a=1-6 selection_b=7-13 scaling=1.10 benchmark_Eint=-3.034 benchmark_unit=kcal/mol group=PS
  P   -1.145716906  -1.014204974  -0.766505256
  P    0.322438558  -1.155180799   0.925706544
  H   -0.710221016  -2.221547615  -1.371863400
  H   -0.325858108  -0.212312726  -1.595662662
  H    0.018129448  -2.509745551   1.214078169
  H   -0.556125204  -0.661372485   1.918607526
  C   -0.929511627   2.535911752   0.530549958
  C    0.235681839   2.578030576   0.253128156
  C    1.647883820   2.613610835  -0.087084241
  H   -1.961524954   2.498923342   0.771941431
  H    2.085007749   1.618103252  -0.006889467
  H    2.193024928   3.276960207   0.584352846
  H    1.793144278   2.970632813  -1.106668480
