18
charge=0 charge_a=0 charge_b=0 selection_a=1-6 selection_b=7-18 scaling=1.25 benchmark_Eint=-2.532 benchmark_unit=kcal/mol group=PS
  P   -1.686583569   0.251249359   0.850504826
  P   -0.272557356  -0.597198981   2.373014024
  H   -2.744585165  -0.604225219   1.256554669
  H   -1.284525773  -0.619854603  -0.189233298
  H   -1.017871642  -0.096801038   3.473162726
  H    0.601647784   0.518499094   2.373939181
  C    2.046963092   0.643281011  -1.182188880
  C    1.295215749   1.154004685  -2.233946999
  C    0.716512890   0.291269083  -3.156960839
  C    0.885736481  -1.082177345  -3.025439309
  C    1.634618704  -1.593154133  -1.971490576
  C    2.217195354  -0.730263569  -1.050828228
  H    2.496180502   1.314464117  -0.464070008
  H    1.157275913   2.221357206  -2.330804319
  H    0.129905513   0.688077294  -3.973332950
  H    0.432058241  -1.753488993  -3.740819590
  H    1.761270725  -2.661092532  -1.865235632
  H    2.796610546  -1.127971710  -0.230197568
