21
charge=0 charge_a=0 charge_b=0 selection_a=1-4 selection_b=5-21 scaling=1.10 benchmark_Eint=-1.210 benchmark_unit=kcal/mol group=PS
  P    0.434921842   1.254137584   1.101180261
  H    1.487471403   0.312289154   1.212675511
  H    0.880096053   2.018155823   2.209273343
  H   -0.458607811   0.478115822   1.880200240
  C   -1.811695348  -1.059533012  -1.965628015
  C   -0.720391965  -2.136516119  -1.948399456
  C   -0.588851318  -2.710707309  -0.532773724
  C   -1.096696312  -3.261505416  -2.919745811
  C    0.615298733  -1.517123598  -2.376547678
  H   -2.773280492  -1.472598076  -1.657654674
  H   -1.931624165  -0.642049501  -2.966217105
  H   -1.564893248  -0.239480387  -1.290676688
  H   -1.527047864  -3.159888261  -0.204269453
  H   -0.322681043  -1.933900199   0.184389203
  H    0.183325053  -3.480158768  -0.492700904
  H   -2.045377852  -3.720588054  -2.638142308
  H   -0.335611505  -4.043038120  -2.927789159
  H   -1.197437465  -2.881542034  -3.937246238
  H    0.902776629  -0.704903036  -1.708449087
  H    0.550523192  -1.109724353  -3.386302959
  H    1.412936289  -2.261286949  -2.365819867
