15
charge=0 charge_a=0 charge_b=0 selection_a=1-11 selection_b=12-15 scaling=1.50 benchmark_Eint=-0.831 benchmark_unit=kcal/mol group=PS
  C   -1.342616638   0.979221061   0.023760626
  C   -0.269171301   1.448541275  -0.725525511
  C    0.690036439   0.615589039  -1.281393496
  P    0.717906436  -1.113736926  -1.149772807
  C   -0.701037883  -1.368473341  -0.185447054
  C   -1.545333914  -0.372420673   0.280743844
  H   -2.042697697   1.694813612   0.430833608
  H   -0.178258792   2.517480310  -0.872776361
  H    1.493873025   1.072230365  -1.845381053
  H   -0.936012864  -2.394192887   0.070219556
  H   -2.401133251  -0.654818523   0.881028893
  C    1.733652947   0.894620539   3.887800564
  C    1.888610759   1.295810104   5.003685985
  H    1.595799863   0.537787514   2.896776107
  H    2.027722026   1.650885303   5.993870624
