11
charge=0 charge_a=0 charge_b=0 selection_a=1-4 selection_b=5-11 scaling=1.05 benchmark_Eint=-2.084 benchmark_unit=kcal/mol group=PS
  P    0.249989303   1.289786471  -0.724751165
  P   -0.813318599  -0.225003873  -1.549528425
  H    0.185162046   2.107671099  -1.890267312
  H   -0.745315531  -1.039915644  -0.385333713
  C   -0.024031087  -1.132971682   2.609544652
  C    1.022608536  -1.227686320   2.034095157
  C    2.287455492  -1.335746815   1.327844942
  H   -0.949064753  -1.045607187   3.120608570
  H    3.002900531  -1.929572689   1.896690169
  H    2.718933752  -0.349385619   1.158242623
  H    2.149309518  -1.809410678   0.355830334
