13
charge=0 charge_a=0 charge_b=0 selection_a=1-6 selection_b=7-13 scaling=1.25 benchmark_Eint=-2.007 benchmark_unit=kcal/mol group=PS
  P   -1.145716906  -1.014204974  -0.766505256
  P    0.322438558  -1.155180799   0.925706544
  H   -0.710221016  -2.221547615  -1.371863400
  H   -0.325858108  -0.212312726  -1.595662662
  H    0.018129448  -2.509745551   1.214078169
  H   -0.556125204  -0.661372485   1.918607526
  C   -0.829896982   2.994351983   0.547694744
  C    0.335296484   3.036470807   0.270272942
  C    1.747498465   3.072051066  -0.069939455
  H   -1.861910309   2.957363573   0.789086217
  H    2.184622394   2.076543483   0.010255319
  H    2.292639573   3.735400438   0.601497632
  H    1.892758923   3.429073044  -1.089523694
