24
charge=0 charge_a=0 charge_b=0 selection_a=1-6 selection_b=7-24 scaling=1.10 benchmark_Eint=-2.121 benchmark_unit=kcal/mol group=PS
  P   -0.888652820   1.083874908   2.175578789
  P   -1.891164832  -0.922866200   2.038089548
  H    0.430735392   0.567293506   2.153520493
  H   -0.931082668   1.096482180   3.593629010
  H   -2.370926149  -0.734567025   0.717760412
  H   -3.097633734  -0.449833854   2.615521371
  C    1.693908298   0.436014637  -3.631244185
  C    0.340320205  -0.274946093  -3.565104465
  C    0.270147689  -1.232864404  -2.373895236
  C    0.591484180  -0.513428569  -1.063060348
  C    1.944455535   0.196371293  -1.126671425
  C    2.013842480   1.153873972  -2.318113229
  H    1.708881804   1.143443516  -4.461940376
  H    2.475861933  -0.301791687  -3.835581424
  H    0.149717607  -0.813279219  -4.494933490
  H   -0.452522394   0.473194190  -3.469325573
  H    0.988831707  -2.044397699  -2.522406585
  H   -0.716032805  -1.696840553  -2.317761619
  H    0.572212325  -1.219364414  -0.230817425
  H   -0.188373051   0.228951990  -0.867558458
  H    2.737488073  -0.551767368  -1.219038701
  H    2.132033756   0.736251528  -0.197053601
  H    2.999091293   1.619780325  -2.371846089
  H    1.293376345   1.963449540  -2.167203165
