22
charge=0 charge_a=0 charge_b=0 selection_a=1-11 selection_b=12-22 scaling=1.10 benchmark_Eint=-2.613 benchmark_unit=kcal/mol group=PS
  C    0.116807910   1.225668894  -1.506979599
  C    1.058650264   0.350092448  -0.976746082
  C    0.721718792  -0.847181327  -0.364933308
  P   -0.890548436  -1.448981746  -0.158890192
  C   -1.793732424  -0.170923889  -0.902896072
  C   -1.249927059   0.971493066  -1.469096075
  H    0.461185312   2.142414314  -1.964699127
  H    2.104439013   0.623679846  -1.044311665
  H    1.523373862  -1.462556404   0.024116282
  H   -2.870970117  -0.280574674  -0.915432597
  H   -1.917907505   1.706467494  -1.901094639
  C   -0.197826793   0.536580786   3.535234678
  C   -0.801551022   1.626974660   2.655030846
  C   -2.327071184   1.626132996   2.682460581
  H    0.891382573   0.543031439   3.490020791
  H   -0.536090779  -0.449967059   3.215714356
  H   -0.490248565   0.665286016   4.578798975
  H   -0.458883373   1.493908782   1.629071711
  H   -0.431505481   2.603184102   2.977584232
  H   -2.719097943   0.666865804   2.342651782
  H   -2.739692165   2.400218885   2.035127285
  H   -2.703217792   1.798689517   3.692299983
