19
charge=0 charge_a=0 charge_b=0 selection_a=1-11 selection_b=12-19 scaling=0.95 benchmark_Eint=-2.645 benchmark_unit=kcal/mol group=PS
  C   -1.365675171  -2.577366908  -0.430401422
  C   -0.979527676  -1.857424272   0.696835586
  C   -0.424655480  -0.589783926   0.636514846
  P   -0.120767523   0.301593999  -0.817161606
  C   -0.691689507  -0.830676462  -1.998802531
  C   -1.225773646  -2.080932615  -1.720805366
  H   -1.791370787  -3.562072624  -0.296277323
  H   -1.122331160  -2.316347970   1.667747062
  H   -0.152637914  -0.101996699   1.563391215
  H   -0.621609639  -0.527786782  -3.036340147
  H   -1.550449694  -2.703114091  -2.545954563
  C    0.104315980   2.507978093   2.348089619
  C    0.235116045   2.929040467   1.092451662
  C    1.679072754   2.302422931   1.033207731
  C    1.547532677   1.881673379   2.288921695
  H   -0.669081261   2.569510132   3.096504070
  H   -0.383138964   3.472557504   0.397940764
  H    2.448589210   2.243914361   0.281932934
  H    2.170860636   1.338007244   2.980298282
