24
charge=0 charge_a=0 charge_b=0 selection_a=1-6 selection_b=7-24 scaling=2.00 benchmark_Eint=-0.185 benchmark_unit=kcal/mol group=PS
  P   -0.888652820   1.083874908   2.175578789
  P   -1.891164832  -0.922866200   2.038089548
  H    0.430735392   0.567293506   2.153520493
  H   -0.931082668   1.096482180   3.593629010
  H   -2.370926149  -0.734567025   0.717760412
  H   -3.097633734  -0.449833854   2.615521371
  C    2.869818628   0.379507936  -5.698769899
  C    1.516230535  -0.331452794  -5.632630179
  C    1.446058019  -1.289371105  -4.441420950
  C    1.767394510  -0.569935270  -3.130586062
  C    3.120365865   0.139864592  -3.194197139
  C    3.189752810   1.097367271  -4.385638943
  H    2.884792134   1.086936815  -6.529466090
  H    3.651772263  -0.358298388  -5.903107138
  H    1.325627937  -0.869785920  -6.562459204
  H    0.723387936   0.416687489  -5.536851287
  H    2.164742037  -2.100904400  -4.589932299
  H    0.459877525  -1.753347254  -4.385287333
  H    1.748122655  -1.275871115  -2.298343139
  H    0.987537279   0.172445289  -2.935084172
  H    3.913398403  -0.608274069  -3.286564415
  H    3.307944086   0.679744827  -2.264579315
  H    4.175001623   1.563273624  -4.439371803
  H    2.469286675   1.906942839  -4.234728879
