21
charge=0 charge_a=0 charge_b=0 selection_a=1-4 selection_b=5-21 scaling=1.50 benchmark_Eint=-0.425 benchmark_unit=kcal/mol group=PS
  P    0.434921842   1.254137584   1.101180261
  H    1.487471403   0.312289154   1.212675511
  H    0.880096053   2.018155823   2.209273343
  H   -0.458607811   0.478115822   1.880200240
  C   -2.079461026  -1.826995058  -2.675162279
  C   -0.988157643  -2.903978165  -2.657933720
  C   -0.856616996  -3.478169355  -1.242307988
  C   -1.364461990  -4.028967462  -3.629280075
  C    0.347533055  -2.284585644  -3.086081942
  H   -3.041046170  -2.240060122  -2.367188938
  H   -2.199389843  -1.409511547  -3.675751369
  H   -1.832658926  -1.006942433  -2.000210952
  H   -1.794813542  -3.927350307  -0.913803717
  H   -0.590446721  -2.701362245  -0.525145061
  H   -0.084440625  -4.247620814  -1.202235168
  H   -2.313143530  -4.488050100  -3.347676572
  H   -0.603377183  -4.810500166  -3.637323423
  H   -1.465203143  -3.649004080  -4.646780502
  H    0.635010951  -1.472365082  -2.417983351
  H    0.282757514  -1.877186399  -4.095837223
  H    1.145170611  -3.028748995  -3.075354131
