26
charge=0 charge_a=0 charge_b=0 selection_a=1-6 selection_b=7-26 scaling=0.95 benchmark_Eint=-2.557 benchmark_unit=kcal/mol group=PS
  P    1.524109802  -0.272975532   1.240280893
  P   -0.402900400  -0.764310213   2.288179425
  H    2.140764049   0.185213595   2.433394222
  H    1.129193307   1.034504363   0.863413703
  H    0.183620276  -1.813520713   3.042022628
  H   -0.865394228  -1.654401144   1.286427999
  C   -3.106391307  -0.286291387  -0.987002558
  C   -1.976405040   0.631527298  -1.462273903
  C   -1.770210954   1.750426053  -0.437349844
  C   -0.674891274  -0.145596834  -1.755737096
  C   -0.887838249  -1.276520943  -2.765482726
  C    0.449482043   0.768373415  -2.248128766
  H   -3.994719202   0.295706741  -0.741948657
  H   -2.810795861  -0.827811463  -0.086117179
  H   -3.391269602  -1.018354321  -1.739227743
  H   -2.291451685   1.093273552  -2.405096346
  H   -1.419903103   1.346416443   0.514693655
  H   -2.709706156   2.267344449  -0.242377383
  H   -1.050553876   2.494301002  -0.771377902
  H   -0.350219040  -0.602519151  -0.814755646
  H   -1.288594152  -0.885223592  -3.703228780
  H   -1.575113513  -2.035804790  -2.399197731
  H    0.057171375  -1.770299522  -2.991021841
  H    0.152442648   1.282074821  -3.165038847
  H    1.345302321   0.188286987  -2.468056155
  H    0.723030046   1.524631823  -1.516235848
