26
charge=0 charge_a=0 charge_b=0 selection_a=1-6 selection_b=7-26 scaling=1.25 benchmark_Eint=-1.949 benchmark_unit=kcal/mol group=PS
  P    1.524109802  -0.272975532   1.240280893
  P   -0.402900400  -0.764310213   2.288179425
  H    2.140764049   0.185213595   2.433394222
  H    1.129193307   1.034504363   0.863413703
  H    0.183620276  -1.813520713   3.042022628
  H   -0.865394228  -1.654401144   1.286427999
  C   -3.465669880  -0.141829827  -1.628658265
  C   -2.335683613   0.775988858  -2.103929610
  C   -2.129489527   1.894887613  -1.079005551
  C   -1.034169847  -0.001135274  -2.397392803
  C   -1.247116822  -1.132059383  -3.407138433
  C    0.090203470   0.912834975  -2.889784473
  H   -4.353997775   0.440168301  -1.383604364
  H   -3.170074434  -0.683349903  -0.727772886
  H   -3.750548175  -0.873892761  -2.380883450
  H   -2.650730258   1.237735112  -3.046752053
  H   -1.779181676   1.490878003  -0.126962052
  H   -3.068984729   2.411806009  -0.884033090
  H   -1.409832449   2.638762562  -1.413033609
  H   -0.709497613  -0.458057591  -1.456411353
  H   -1.647872725  -0.740762032  -4.344884487
  H   -1.934392086  -1.891343230  -3.040853438
  H   -0.302107198  -1.625837962  -3.632677548
  H   -0.206835925   1.426536381  -3.806694554
  H    0.986023748   0.332748547  -3.109711862
  H    0.363751473   1.669093383  -2.157891555
