26
charge=0 charge_a=0 charge_b=0 selection_a=1-6 selection_b=7-26 scaling=2.00 benchmark_Eint=-0.272 benchmark_unit=kcal/mol group=PS
  P    1.524109802  -0.272975532   1.240280893
  P   -0.402900400  -0.764310213   2.288179425
  H    2.140764049   0.185213595   2.433394222
  H    1.129193307   1.034504363   0.863413703
  H    0.183620276  -1.813520713   3.042022628
  H   -0.865394228  -1.654401144   1.286427999
  C   -4.363866311   0.219324072  -3.232797530
  C   -3.233880044   1.137142757  -3.708068875
  C   -3.027685958   2.256041512  -2.683144816
  C   -1.932366278   0.360018625  -4.001532068
  C   -2.145313253  -0.770905484  -5.011277698
  C   -0.807992961   1.273988874  -4.493923738
  H   -5.252194206   0.801322200  -2.987743629
  H   -4.068270865  -0.322196004  -2.331912151
  H   -4.648744606  -0.512738862  -3.985022715
  H   -3.548926689   1.598889011  -4.650891318
  H   -2.677378107   1.852031902  -1.731101317
  H   -3.967181160   2.772959908  -2.488172355
  H   -2.308028880   2.999916461  -3.017172874
  H   -1.607694044  -0.096903692  -3.060550618
  H   -2.546069156  -0.379608133  -5.949023752
  H   -2.832588517  -1.530189331  -4.644992703
  H   -1.200303629  -1.264684063  -5.236816813
  H   -1.105032356   1.787690280  -5.410833819
  H    0.087827317   0.693902446  -4.713851127
  H   -0.534444958   2.030247282  -3.762030820
