11
charge=0 charge_a=0 charge_b=0 selection_a=1-4 selection_b=5-11 scaling=1.10 benchmark_Eint=-1.948 benchmark_unit=kcal/mol group=PS
  P    0.249989303   1.289786471  -0.724751165
  P   -0.813318599  -0.225003873  -1.549528425
  H    0.185162046   2.107671099  -1.890267312
  H   -0.745315531  -1.039915644  -0.385333713
  C    0.029852406  -1.199153416   2.725161351
  C    1.076492029  -1.293868054   2.149711856
  C    2.341338985  -1.401928549   1.443461641
  H   -0.895181260  -1.111788921   3.236225269
  H    3.056784024  -1.995754423   2.012306868
  H    2.772817245  -0.415567353   1.273859322
  H    2.203193011  -1.875592412   0.471447033
