26
charge=0 charge_a=0 charge_b=0 selection_a=1-11 selection_b=12-26 scaling=2.00 benchmark_Eint=-0.214 benchmark_unit=kcal/mol group=PS
  C   -1.854091457   1.383367785  -0.915186891
  C   -0.506630040   1.725637734  -0.905543291
  C    0.489537481   0.907490924  -1.412339763
  P    0.238106309  -0.649274014  -2.128569812
  C   -1.486136685  -0.772433476  -2.002231916
  C   -2.319162851   0.182794748  -1.440807404
  H   -2.568862765   2.078447178  -0.496956636
  H   -0.225575705   2.676548781  -0.469919723
  H    1.513380370   1.251403185  -1.344319990
  H   -1.938792836  -1.677309250  -2.388863631
  H   -3.385075048  -0.008770639  -1.410746403
  C    1.365875365  -0.261236383   4.684531014
  C    0.449745856   0.792663432   5.241606263
  C    2.738380535  -0.041903389   4.587827332
  C    3.586003541  -1.021829045   4.085913844
  C    3.070601063  -2.240929366   3.667759239
  C    1.702534401  -2.469779604   3.755025406
  C    0.861020693  -1.488501031   4.258787829
  H    0.889939395   1.785095935   5.158082354
  H    0.242164609   0.613154814   6.298423985
  H   -0.504415344   0.798837261   4.716871160
  H    3.146981532   0.909205790   4.903449003
  H    4.647583501  -0.829548069   4.015604534
  H    3.724676783  -3.000819541   3.265246399
  H    1.289318268  -3.409203288   3.416513601
  H   -0.204483995  -1.668868116   4.304772324
