22
charge=0 charge_a=0 charge_b=0 selection_a=1-4 selection_b=5-22 scaling=1.10 benchmark_Eint=-2.184 benchmark_unit=kcal/mol group=PS
  P   -0.623827727   1.534759781  -1.481277894
  P   -2.044198145   0.171916898  -1.960323954
  H   -1.158370943   2.543784954  -2.332877284
  H   -1.515497822  -0.840443214  -1.112106222
  C    2.225600104   0.057016737   1.685471213
  C    1.137427047  -0.315799478   2.694565364
  C   -0.046069054  -1.003393929   2.010622958
  C    0.405327843  -2.219253228   1.198557114
  C    1.499492179  -1.851122657   0.194139276
  C    2.680833955  -1.161859594   0.880177465
  H    3.076074682   0.510357701   2.197458172
  H    1.832903338   0.812292998   0.999196797
  H    0.798543109   0.572421532   3.230380335
  H    1.559789445  -0.991134036   3.445091963
  H   -0.536227852  -0.287507864   1.345217308
  H   -0.791508718  -1.299790750   2.750582284
  H   -0.446430634  -2.667206116   0.682894213
  H    0.789536665  -2.982872311   1.881649154
  H    1.084550401  -1.177107153  -0.560330242
  H    1.837601802  -2.741695912  -0.338422162
  H    3.427260886  -0.868626619   0.140110102
  H    3.170075642  -1.873777605   1.552199661
