15
charge=0 charge_a=0 charge_b=0 selection_a=1-4 selection_b=5-15 scaling=1.50 benchmark_Eint=-0.871 benchmark_unit=kcal/mol group=PS
  P   -0.084910345  -0.065011757  -1.153456601
  P   -1.360294250  -1.475918463  -1.859202014
  H   -1.101705622   0.880155075  -0.851528342
  H   -0.326417511  -2.408649304  -2.159648027
  C    2.597403335   1.573553394   2.805067565
  C    1.325548537   0.867838053   3.170864776
  C    0.317153493   1.759604357   3.192477139
  C    0.832115223   3.079667127   2.830941740
  C    2.152265475   2.990648366   2.594943728
  H    3.061198864   1.149748820   1.910169856
  H    3.344311590   1.497446722   3.602452930
  H    1.260028239  -0.184670953   3.391993064
  H   -0.714109374   1.546741139   3.427748557
  H    0.231289893   3.973369834   2.763554255
  H    2.811566080   3.792882656   2.305934428
