16
charge=0 charge_a=0 charge_b=0 selection_a=1-4 selection_b=5-16 scaling=1.50 benchmark_Eint=-0.879 benchmark_unit=kcal/mol group=PS
  P    0.740343242  -0.109666067  -2.198757453
  P   -1.088000779   0.144436434  -1.361055529
  H    1.007098231   1.285254183  -2.302514125
  H   -1.354841177  -1.250553498  -1.258196036
  C    2.342651245  -1.336297501   2.583773570
  C    1.100568369  -1.096182112   3.151823000
  C    0.667028198   0.212174761   3.348797567
  C    1.488591377   1.279104753   3.000053790
  C    2.728644785   1.039058970   2.427527860
  C    3.151482468  -0.269106540   2.207122021
  H    2.675906914  -2.350440953   2.416675035
  H    0.464288716  -1.923022067   3.433410893
  H   -0.303169153   0.399234753   3.786069189
  H    1.151750587   2.293320801   3.159356518
  H    3.363729578   1.865940955   2.143305817
  H    4.115243944  -0.456013118   1.755741385
