24
charge=0 charge_a=0 charge_b=0 selection_a=1-4 selection_b=5-24 scaling=0.80 benchmark_Eint=0.847 benchmark_unit=kcal/mol group=PS
  P    1.738150796   1.083481706  -1.090226209
  P    0.404410134  -0.291086858  -1.749088734
  H    2.849300885   0.465372411  -1.731447279
  H   -0.710105233   0.322966202  -1.110642249
  C    0.609573731  -1.424880383   1.513208437
  C   -0.380941824  -0.571207059   2.333077449
  C   -0.324436328   0.899796509   1.902325870
  C   -1.794244325  -1.109003386   2.075849154
  C   -0.072873464  -0.676477862   3.831876255
  C    2.081031569  -1.035195144   1.601590125
  H    0.299305867  -1.392250851   0.465014627
  H    0.497229143  -2.466845667   1.824250770
  H    0.651040585   1.342582100   2.097639915
  H   -0.531407542   1.004886671   0.837137433
  H   -1.067075232   1.485064786   2.445787080
  H   -1.875837524  -2.155091495   2.374342228
  H   -2.050707158  -1.042297025   1.017515101
  H   -2.537341807  -0.541222480   2.637088581
  H   -0.088805736  -1.716201574   4.162322400
  H    0.905222657  -0.261842868   4.072450276
  H   -0.814295450  -0.129017422   4.415065002
  H    2.253300421  -0.021942305   1.239686721
  H    2.456457407  -1.091740568   2.622685384
  H    2.688112832  -1.703857512   0.991634769
