24
charge=0 charge_a=0 charge_b=0 selection_a=1-6 selection_b=7-24 scaling=1.50 benchmark_Eint=-0.727 benchmark_unit=kcal/mol group=PS
  P   -0.888652820   1.083874908   2.175578789
  P   -1.891164832  -0.922866200   2.038089548
  H    0.430735392   0.567293506   2.153520493
  H   -0.931082668   1.096482180   3.593629010
  H   -2.370926149  -0.734567025   0.717760412
  H   -3.097633734  -0.449833854   2.615521371
  C    2.216535112   0.410900548  -4.550144503
  C    0.862947019  -0.300060182  -4.484004783
  C    0.792774503  -1.257978493  -3.292795554
  C    1.114110994  -0.538542658  -1.981960666
  C    2.467082349   0.171257204  -2.045571743
  C    2.536469294   1.128759883  -3.237013547
  H    2.231508618   1.118329427  -5.380840694
  H    2.998488747  -0.326905776  -4.754481742
  H    0.672344421  -0.838393308  -5.413833808
  H    0.070104420   0.448080101  -4.388225891
  H    1.511458521  -2.069511788  -3.441306903
  H   -0.193405991  -1.721954642  -3.236661937
  H    1.094839139  -1.244478503  -1.149717743
  H    0.334253763   0.203837901  -1.786458776
  H    3.260114887  -0.576881457  -2.137939019
  H    2.654660570   0.711137439  -1.115953919
  H    3.521718107   1.594666236  -3.290746407
  H    1.816003159   1.938335451  -3.086103483
