29
charge=0 charge_a=0 charge_b=0 selection_a=1-11 selection_b=12-29 scaling=0.90 benchmark_Eint=-2.353 benchmark_unit=kcal/mol group=PS
  C    2.030302967   1.050348936  -1.257717547
  C    2.312918193   0.743421549   0.068908380
  C    1.977926985  -0.466994216   0.655487412
  P    1.165283471  -1.775317262  -0.138423659
  C    0.963690382  -1.097819218  -1.720894480
  C    1.383777673   0.163712660  -2.112528005
  H    2.322314596   2.018620613  -1.639408481
  H    2.815980100   1.491022043   0.669741671
  H    2.234264928  -0.614659367   1.697175647
  H    0.462378348  -1.717122330  -2.454272378
  H    1.198192803   0.480925886  -3.131348390
  C   -1.327099258   0.899978834   0.296351767
  C   -1.038710916   0.841006751   1.797077478
  C   -2.331135180   0.806037735   2.615037457
  C   -3.236734666  -0.346956955   2.175793697
  C   -3.525901998  -0.290353825   0.673931738
  C   -2.231663686  -0.253080916  -0.140985409
  H   -0.395677430   0.882495707  -0.267126682
  H   -1.818676225   1.849895105   0.063025776
  H   -0.420925562   1.689519433   2.096896208
  H   -0.454503935  -0.058522995   2.009842359
  H   -2.866070288   1.751605709   2.482220396
  H   -2.104404254   0.723594892   3.679544490
  H   -4.169735884  -0.332334751   2.741911551
  H   -2.744614503  -1.296140765   2.408852133
  H   -4.113541146   0.607060870   0.456395862
  H   -4.137833666  -1.143227191   0.374986322
  H   -2.454747562  -0.175185708  -1.206635828
  H   -1.694243843  -1.195885898  -0.004956084
