24
charge=0 charge_a=0 charge_b=0 selection_a=1-4 selection_b=5-24 scaling=1.05 benchmark_Eint=-2.021 benchmark_unit=kcal/mol group=PS
  P    1.738150796   1.083481706  -1.090226209
  P    0.404410134  -0.291086858  -1.749088734
  H    2.849300885   0.465372411  -1.731447279
  H   -0.710105233   0.322966202  -1.110642249
  C    0.445087019  -1.589071064   2.084656091
  C   -0.545428536  -0.735397740   2.904525103
  C   -0.488923040   0.735605828   2.473773524
  C   -1.958731037  -1.273194067   2.647296808
  C   -0.237360176  -0.840668543   4.403323909
  C    1.916544857  -1.199385825   2.173037779
  H    0.134819155  -1.556441532   1.036462281
  H    0.332742431  -2.631036348   2.395698424
  H    0.486553873   1.178391419   2.669087569
  H   -0.695894254   0.840695990   1.408585087
  H   -1.231561944   1.320874105   3.017234734
  H   -2.040324236  -2.319282176   2.945789882
  H   -2.215193870  -1.206487706   1.588962755
  H   -2.701828519  -0.705413161   3.208536235
  H   -0.253292448  -1.880392255   4.733770054
  H    0.740735945  -0.426033549   4.643897930
  H   -0.978782162  -0.293208103   4.986512656
  H    2.088813709  -0.186132986   1.811134375
  H    2.291970695  -1.255931249   3.194133038
  H    2.523626120  -1.868048193   1.563082423
