28
charge=0 charge_a=0 charge_b=0 selection_a=1-11 selection_b=12-28 scaling=1.10 benchmark_Eint=-2.638 benchmark_unit=kcal/mol group=PS
  C   -1.140026088   2.137466646   0.626253478
  C    0.127476811   2.323204513   0.085311113
  C    0.472998191   1.919225385  -1.194807994
  P   -0.585459977   1.130445921  -2.318048370
  C   -2.036219009   1.056453195  -1.372294195
  C   -2.175035660   1.531106564  -0.077229898
  H   -1.327354832   2.475507520   1.635723807
  H    0.879130279   2.803303722   0.699750499
  H    1.486622889   2.102562037  -1.529087616
  H   -2.897190211   0.594307155  -1.839084094
  H   -3.132744392   1.422793965   0.416775389
  C    1.857246888  -3.271211318   2.011114740
  C    1.486585343  -1.895256912   1.446368846
  C    0.076227101  -1.948283954   0.847892092
  C    1.524188299  -0.853872192   2.571293070
  C    2.489260898  -1.502845323   0.354664196
  H    1.158021554  -3.574960215   2.791543862
  H    2.858698493  -3.260828001   2.443900344
  H    1.837878211  -4.032190868   1.229722013
  H   -0.658304236  -2.227547219   1.604882640
  H    0.021726137  -2.681289801   0.041918395
  H   -0.213441440  -0.981434074   0.440179523
  H    0.818855192  -1.109107795   3.363574024
  H    1.260928373   0.134241428   2.194300093
  H    2.518991134  -0.792867108   3.015122959
  H    2.483946509  -2.228803116  -0.459509410
  H    3.503350680  -1.454463717   0.754322391
  H    2.243633381  -0.528375463  -0.066508534
