18
charge=0 charge_a=0 charge_b=0 selection_a=1-6 selection_b=7-18 scaling=0.95 benchmark_Eint=-3.844 benchmark_unit=kcal/mol group=PS
  P   -1.686583569   0.251249359   0.850504826
  P   -0.272557356  -0.597198981   2.373014024
  H   -2.744585165  -0.604225219   1.256554669
  H   -1.284525773  -0.619854603  -0.189233298
  H   -1.017871642  -0.096801038   3.473162726
  H    0.601647784   0.518499094   2.373939181
  C    1.580884504   0.651804232  -0.475070359
  C    0.829137161   1.162527906  -1.526828478
  C    0.250434302   0.299792304  -2.449842318
  C    0.419657893  -1.073654124  -2.318320788
  C    1.168540116  -1.584630912  -1.264372055
  C    1.751116766  -0.721740348  -0.343709707
  H    2.030101914   1.322987338   0.243048513
  H    0.691197325   2.229880427  -1.623685798
  H   -0.336173075   0.696600515  -3.266214429
  H   -0.034020347  -1.744965772  -3.033701069
  H    1.295192137  -2.652569311  -1.158117111
  H    2.330531958  -1.119448489   0.476920953
