15
charge=0 charge_a=0 charge_b=0 selection_a=1-4 selection_b=5-15 scaling=1.10 benchmark_Eint=-2.641 benchmark_unit=kcal/mol group=PS
  P   -0.084910345  -0.065011757  -1.153456601
  P   -1.360294250  -1.475918463  -1.859202014
  H   -1.101705622   0.880155075  -0.851528342
  H   -0.326417511  -2.408649304  -2.159648027
  C    2.135433181   0.978804020   1.870862931
  C    0.863578383   0.273088679   2.236660142
  C   -0.144816661   1.164854983   2.258272505
  C    0.370145069   2.484917753   1.896737106
  C    1.690295321   2.395898992   1.660739094
  H    2.599228710   0.554999446   0.975965222
  H    2.882341436   0.902697348   2.668248296
  H    0.798058085  -0.779420327   2.457788430
  H   -1.176079528   0.951991765   2.493543923
  H   -0.230680261   3.378620460   1.829349621
  H    2.349595926   3.198133282   1.371729794
