13
charge=0 charge_a=0 charge_b=0 selection_a=1-4 selection_b=5-13 scaling=1.50 benchmark_Eint=-0.645 benchmark_unit=kcal/mol group=PS
  P   -0.561759224   0.503451777   0.829917937
  P    1.200258858   0.785672221  -0.447943224
  P   -0.684059014   0.050245946  -1.326160290
  P    0.495774696  -1.239421464   0.019935608
  C    3.506305764   0.194292773   4.262715770
  C    4.169706236  -0.838865782   3.760911494
  C    5.334964844  -0.742828277   2.829528806
  H    2.668253857   0.059607495   4.931392621
  H    3.778110832   1.213362073   4.018683479
  H    3.857123153  -1.842010391   4.032171700
  H    5.575406223   0.293771285   2.598134058
  H    5.127959948  -1.262290548   1.891937492
  H    6.220793157  -1.213095182   3.261590228
