13
charge=0 charge_a=0 charge_b=0 selection_a=1-4 selection_b=5-13 scaling=1.10 benchmark_Eint=-2.656 benchmark_unit=kcal/mol group=PS
  P   -0.561759224   0.503451777   0.829917937
  P    1.200258858   0.785672221  -0.447943224
  P   -0.684059014   0.050245946  -1.326160290
  P    0.495774696  -1.239421464   0.019935608
  C    2.487390629   0.310927615   3.346290457
  C    3.150791101  -0.722230940   2.844486181
  C    4.316049709  -0.626193435   1.913103493
  H    1.649338722   0.176242337   4.014967308
  H    2.759195697   1.329996915   3.102258166
  H    2.838208018  -1.725375549   3.115746387
  H    4.556491088   0.410406127   1.681708745
  H    4.109044813  -1.145655706   0.975512179
  H    5.201878022  -1.096460340   2.345164915
