24
charge=0 charge_a=0 charge_b=0 selection_a=1-4 selection_b=5-24 scaling=1.05 benchmark_Eint=-2.030 benchmark_unit=kcal/mol group=PS
  P   -0.745320123  -1.028491106  -1.926055376
  P    0.806882143   0.270737079  -2.002238003
  H   -0.054505799  -2.056173859  -2.629194797
  H    0.122317302   1.302590293  -1.300245996
  C    1.050043054   1.949066231   2.711722244
  C    0.466734806   0.534673983   2.649142590
  C   -0.945973021   0.595775826   2.061381343
  C    1.387310370  -0.436563707   1.878953683
  C    2.775897111  -0.543576719   2.514855186
  C    0.779076384  -1.831923996   1.738358352
  H    0.368640753   2.623406307   3.230365883
  H    1.202894058   2.345368663   1.705254781
  H    2.004403144   1.983533148   3.232334660
  H    0.387368179   0.155860100   3.674695670
  H   -0.917685487   0.907452472   1.015791208
  H   -1.553512844   1.320173854   2.603790448
  H   -1.457941152  -0.362546103   2.107702076
  H    1.515482830  -0.026613740   0.869967947
  H    2.700512234  -0.891227089   3.547609764
  H    3.304401282   0.407075669   2.519921134
  H    3.392628025  -1.258638597   1.970564180
  H    0.543713847  -2.252786103   2.718422345
  H    1.479610296  -2.507356707   1.247341313
  H   -0.135583183  -1.826346695   1.149037947
