24
charge=0 charge_a=0 charge_b=0 selection_a=1-4 selection_b=5-24 scaling=1.50 benchmark_Eint=-0.896 benchmark_unit=kcal/mol group=PS
  P    1.738150796   1.083481706  -1.090226209
  P    0.404410134  -0.291086858  -1.749088734
  H    2.849300885   0.465372411  -1.731447279
  H   -0.710105233   0.322966202  -1.110642249
  C    0.149010937  -1.884614292   3.113261868
  C   -0.841504618  -1.030940968   3.933130880
  C   -0.784999122   0.440062600   3.502379301
  C   -2.254807119  -1.568737295   3.675902585
  C   -0.533436258  -1.136211771   5.431929686
  C    1.620468775  -1.494929053   3.201643556
  H   -0.161256927  -1.851984760   2.065068058
  H    0.036666349  -2.926579576   3.424304201
  H    0.190477791   0.882848191   3.697693346
  H   -0.991970336   0.545152762   2.437190864
  H   -1.527638026   1.025330877   4.045840511
  H   -2.336400318  -2.614825404   3.974395659
  H   -2.511269952  -1.502030934   2.617568532
  H   -2.997904601  -1.000956389   4.237142012
  H   -0.549368530  -2.175935483   5.762375831
  H    0.444659863  -0.721576777   5.672503707
  H   -1.274858244  -0.588751331   6.015118433
  H    1.792737627  -0.481676214   2.839740152
  H    1.995894613  -1.551474477   4.222738815
  H    2.227550038  -2.163591421   2.591688200
