13
charge=0 charge_a=0 charge_b=0 selection_a=1-4 selection_b=5-13 scaling=2.00 benchmark_Eint=-0.120 benchmark_unit=kcal/mol group=PS
  P   -0.561759224   0.503451777   0.829917937
  P    1.200258858   0.785672221  -0.447943224
  P   -0.684059014   0.050245946  -1.326160290
  P    0.495774696  -1.239421464   0.019935608
  C    4.779949682   0.048499221   5.408247410
  C    5.443350154  -0.984659334   4.906443134
  C    6.608608762  -0.888621829   3.975060446
  H    3.941897775  -0.086186057   6.076924261
  H    5.051754750   1.067568521   5.164215119
  H    5.130767071  -1.987803943   5.177703340
  H    6.849050141   0.147977733   3.743665698
  H    6.401603866  -1.408084100   3.037469132
  H    7.494437075  -1.358888734   4.407121868
