26
charge=0 charge_a=0 charge_b=0 selection_a=1-6 selection_b=7-26 scaling=1.05 benchmark_Eint=-2.727 benchmark_unit=kcal/mol group=PS
  P    1.524109802  -0.272975532   1.240280893
  P   -0.402900400  -0.764310213   2.288179425
  H    2.140764049   0.185213595   2.433394222
  H    1.129193307   1.034504363   0.863413703
  H    0.183620276  -1.813520713   3.042022628
  H   -0.865394228  -1.654401144   1.286427999
  C   -3.226150831  -0.238137533  -1.200887794
  C   -2.096164564   0.679681152  -1.676159139
  C   -1.889970478   1.798579907  -0.651235080
  C   -0.794650798  -0.097442980  -1.969622332
  C   -1.007597773  -1.228367089  -2.979367962
  C    0.329722519   0.816527269  -2.462014002
  H   -4.114478726   0.343860595  -0.955833893
  H   -2.930555385  -0.779657609  -0.300002415
  H   -3.511029126  -0.970200467  -1.953112979
  H   -2.411211209   1.141427406  -2.618981582
  H   -1.539662627   1.394570297   0.300808419
  H   -2.829465680   2.315498303  -0.456262619
  H   -1.170313400   2.542454856  -0.985263138
  H   -0.469978564  -0.554365297  -1.028640882
  H   -1.408353676  -0.837069738  -3.917114016
  H   -1.694873037  -1.987650936  -2.613082967
  H   -0.062588149  -1.722145668  -3.204907077
  H    0.032683124   1.330228675  -3.378924083
  H    1.225542797   0.236440841  -2.681941391
  H    0.603270522   1.572785677  -1.730121084
