18
charge=0 charge_a=0 charge_b=0 selection_a=1-6 selection_b=7-18 scaling=1.50 benchmark_Eint=-1.206 benchmark_unit=kcal/mol group=PS
  P   -1.686583569   0.251249359   0.850504826
  P   -0.272557356  -0.597198981   2.373014024
  H   -2.744585165  -0.604225219   1.256554669
  H   -1.284525773  -0.619854603  -0.189233298
  H   -1.017871642  -0.096801038   3.473162726
  H    0.601647784   0.518499094   2.373939181
  C    2.435361915   0.636178326  -1.771454314
  C    1.683614572   1.146902000  -2.823212433
  C    1.104911713   0.284166398  -3.746226273
  C    1.274135304  -1.089280030  -3.614704743
  C    2.023017527  -1.600256818  -2.560756010
  C    2.605594177  -0.737366254  -1.640093662
  H    2.884579325   1.307361432  -1.053335442
  H    1.545674736   2.214254521  -2.920069753
  H    0.518304336   0.680974609  -4.562598384
  H    0.820457064  -1.760591678  -4.330085024
  H    2.149669548  -2.668195217  -2.454501066
  H    3.185009369  -1.135074395  -0.819463002
