22
charge=0 charge_a=0 charge_b=0 selection_a=1-11 selection_b=12-22 scaling=1.50 benchmark_Eint=-0.810 benchmark_unit=kcal/mol group=PS
  C    0.116807910   1.225668894  -1.506979599
  C    1.058650264   0.350092448  -0.976746082
  C    0.721718792  -0.847181327  -0.364933308
  P   -0.890548436  -1.448981746  -0.158890192
  C   -1.793732424  -0.170923889  -0.902896072
  C   -1.249927059   0.971493066  -1.469096075
  H    0.461185312   2.142414314  -1.964699127
  H    2.104439013   0.623679846  -1.044311665
  H    1.523373862  -1.462556404   0.024116282
  H   -2.870970117  -0.280574674  -0.915432597
  H   -1.917907505   1.706467494  -1.901094639
  C   -0.392215450   0.967002485   4.604054570
  C   -0.995939679   2.057396359   3.723850738
  C   -2.521459841   2.056554695   3.751280473
  H    0.696993916   0.973453138   4.558840683
  H   -0.730479436  -0.019545360   4.284534248
  H   -0.684637222   1.095707715   5.647618867
  H   -0.653272030   1.924330481   2.697891603
  H   -0.625894138   3.033605801   4.046404124
  H   -2.913486600   1.097287503   3.411471674
  H   -2.934080822   2.830640584   3.103947177
  H   -2.897606449   2.229111216   4.761119875
