16
charge=0 charge_a=0 charge_b=0 selection_a=1-4 selection_b=5-16 scaling=1.05 benchmark_Eint=-3.754 benchmark_unit=kcal/mol group=PS
  P    0.740343242  -0.109666067  -2.198757453
  P   -1.088000779   0.144436434  -1.361055529
  H    1.007098231   1.285254183  -2.302514125
  H   -1.354841177  -1.250553498  -1.258196036
  C    1.715154171  -1.322489173   1.210779834
  C    0.473071295  -1.082373784   1.778829264
  C    0.039531124   0.225983089   1.975803831
  C    0.861094303   1.292913081   1.627060054
  C    2.101147711   1.052867298   1.054534124
  C    2.523985394  -0.255298212   0.834128285
  H    2.048409840  -2.336632625   1.043681299
  H   -0.163208358  -1.909213739   2.060417157
  H   -0.930666227   0.413043081   2.413075453
  H    0.524253513   2.307129129   1.786362782
  H    2.736232504   1.879749283   0.770312081
  H    3.487746870  -0.442204790   0.382747649
