19
charge=0 charge_a=0 charge_b=0 selection_a=1-11 selection_b=12-19 scaling=0.85 benchmark_Eint=-0.730 benchmark_unit=kcal/mol group=PS
  C   -1.365675171  -2.577366908  -0.430401422
  C   -0.979527676  -1.857424272   0.696835586
  C   -0.424655480  -0.589783926   0.636514846
  P   -0.120767523   0.301593999  -0.817161606
  C   -0.691689507  -0.830676462  -1.998802531
  C   -1.225773646  -2.080932615  -1.720805366
  H   -1.791370787  -3.562072624  -0.296277323
  H   -1.122331160  -2.316347970   1.667747062
  H   -0.152637914  -0.101996699   1.563391215
  H   -0.621609639  -0.527786782  -3.036340147
  H   -1.550449694  -2.703114091  -2.545954563
  C    0.002995483   2.288958104   2.197607507
  C    0.133795548   2.710020478   0.941969550
  C    1.577752257   2.083402942   0.882725619
  C    1.446212180   1.662653390   2.138439583
  H   -0.770401758   2.350490143   2.946021958
  H   -0.484459461   3.253537515   0.247458652
  H    2.347268713   2.024894372   0.131450822
  H    2.069540139   1.118987255   2.829816170
