24
charge=0 charge_a=0 charge_b=0 selection_a=1-6 selection_b=7-24 scaling=0.80 benchmark_Eint=0.500 benchmark_unit=kcal/mol group=PS
  P   -0.888652820   1.083874908   2.175578789
  P   -1.891164832  -0.922866200   2.038089548
  H    0.430735392   0.567293506   2.153520493
  H   -0.931082668   1.096482180   3.593629010
  H   -2.370926149  -0.734567025   0.717760412
  H   -3.097633734  -0.449833854   2.615521371
  C    1.301938188   0.454850204  -2.942068947
  C   -0.051649905  -0.256110526  -2.875929227
  C   -0.121822421  -1.214028837  -1.684719998
  C    0.199514070  -0.494593002  -0.373885110
  C    1.552485425   0.215206860  -0.437496187
  C    1.621872370   1.172709539  -1.628937991
  H    1.316911694   1.162279083  -3.772765138
  H    2.083891823  -0.282956120  -3.146406186
  H   -0.242252503  -0.794443652  -3.805758252
  H   -0.844492504   0.492029757  -2.780150335
  H    0.596861597  -2.025562132  -1.833231347
  H   -1.108002915  -1.678004986  -1.628586381
  H    0.180242215  -1.200528847   0.458357813
  H   -0.580343161   0.247787557  -0.178383220
  H    2.345517963  -0.532931801  -0.529863463
  H    1.740063646   0.755087095   0.492121637
  H    2.607121183   1.638615892  -1.682670851
  H    0.901406235   1.982285107  -1.478027927
