29
charge=0 charge_a=0 charge_b=0 selection_a=1-11 selection_b=12-29 scaling=2.00 benchmark_Eint=-0.225 benchmark_unit=kcal/mol group=PS
  C    2.030302967   1.050348936  -1.257717547
  C    2.312918193   0.743421549   0.068908380
  C    1.977926985  -0.466994216   0.655487412
  P    1.165283471  -1.775317262  -0.138423659
  C    0.963690382  -1.097819218  -1.720894480
  C    1.383777673   0.163712660  -2.112528005
  H    2.322314596   2.018620613  -1.639408481
  H    2.815980100   1.491022043   0.669741671
  H    2.234264928  -0.614659367   1.697175647
  H    0.462378348  -1.717122330  -2.454272378
  H    1.198192803   0.480925886  -3.131348390
  C   -4.153384769   1.476042325   1.679825019
  C   -3.864996427   1.417070242   3.180550730
  C   -5.157420691   1.382101226   3.998510709
  C   -6.063020177   0.229106536   3.559266949
  C   -6.352187509   0.285709666   2.057404990
  C   -5.057949197   0.322982575   1.242487843
  H   -3.221962941   1.458559198   1.116346570
  H   -4.644961736   2.425958596   1.446499028
  H   -3.247211073   2.265582924   3.480369460
  H   -3.280789446   0.517540496   3.393315611
  H   -5.692355799   2.327669200   3.865693648
  H   -4.930689765   1.299658383   5.063017742
  H   -6.996021395   0.243728740   4.125384803
  H   -5.570900014  -0.720077274   3.792325385
  H   -6.939826657   1.183124361   1.839869114
  H   -6.964119177  -0.567163700   1.758459574
  H   -5.281033073   0.400877783   0.176837424
  H   -4.520529354  -0.619822407   1.378517168
