15
charge=0 charge_a=0 charge_b=0 selection_a=1-4 selection_b=5-15 scaling=2.00 benchmark_Eint=-0.191 benchmark_unit=kcal/mol group=PS
  P   -0.084910345  -0.065011757  -1.153456601
  P   -1.360294250  -1.475918463  -1.859202014
  H   -1.101705622   0.880155075  -0.851528342
  H   -0.326417511  -2.408649304  -2.159648027
  C    3.174866026   2.316990113   3.972823358
  C    1.903011228   1.611274772   4.338620569
  C    0.894616184   2.503041076   4.360232932
  C    1.409577914   3.823103846   3.998697533
  C    2.729728166   3.734085085   3.762699521
  H    3.638661555   1.893185539   3.077925649
  H    3.921774281   2.240883441   4.770208723
  H    1.837490930   0.558765766   4.559748857
  H   -0.136646683   2.290177858   4.595504350
  H    0.808752584   4.716806553   3.931310048
  H    3.389028771   4.536319375   3.473690221
