29
charge=0 charge_a=0 charge_b=0 selection_a=1-11 selection_b=12-29 scaling=0.85 benchmark_Eint=-0.947 benchmark_unit=kcal/mol group=PS
  C    2.030302967   1.050348936  -1.257717547
  C    2.312918193   0.743421549   0.068908380
  C    1.977926985  -0.466994216   0.655487412
  P    1.165283471  -1.775317262  -0.138423659
  C    0.963690382  -1.097819218  -1.720894480
  C    1.383777673   0.163712660  -2.112528005
  H    2.322314596   2.018620613  -1.639408481
  H    2.815980100   1.491022043   0.669741671
  H    2.234264928  -0.614659367   1.697175647
  H    0.462378348  -1.717122330  -2.454272378
  H    1.198192803   0.480925886  -3.131348390
  C   -1.198631734   0.873794130   0.233466620
  C   -0.910243392   0.814822047   1.734192331
  C   -2.202667656   0.779853031   2.552152310
  C   -3.108267142  -0.373141659   2.112908550
  C   -3.397434474  -0.316538529   0.611046591
  C   -2.103196162  -0.279265620  -0.203870556
  H   -0.267209906   0.856311003  -0.330011829
  H   -1.690208701   1.823710401   0.000140629
  H   -0.292458038   1.663334729   2.034011061
  H   -0.326036411  -0.084707699   1.946957212
  H   -2.737602764   1.725421005   2.419335249
  H   -1.975936730   0.697410188   3.616659343
  H   -4.041268360  -0.358519455   2.679026404
  H   -2.616146979  -1.322325469   2.345966986
  H   -3.985073622   0.580876166   0.393510715
  H   -4.009366142  -1.169411895   0.312101175
  H   -2.326280038  -0.201370412  -1.269520975
  H   -1.565776319  -1.222070602  -0.067841231
