22
charge=0 charge_a=0 charge_b=0 selection_a=1-11 selection_b=12-22 scaling=1.25 benchmark_Eint=-1.779 benchmark_unit=kcal/mol group=PS
  C    0.116807910   1.225668894  -1.506979599
  C    1.058650264   0.350092448  -0.976746082
  C    0.721718792  -0.847181327  -0.364933308
  P   -0.890548436  -1.448981746  -0.158890192
  C   -1.793732424  -0.170923889  -0.902896072
  C   -1.249927059   0.971493066  -1.469096075
  H    0.461185312   2.142414314  -1.964699127
  H    2.104439013   0.623679846  -1.044311665
  H    1.523373862  -1.462556404   0.024116282
  H   -2.870970117  -0.280574674  -0.915432597
  H   -1.917907505   1.706467494  -1.901094639
  C   -0.270722540   0.697988923   3.936042138
  C   -0.874446769   1.788382797   3.055838306
  C   -2.399966931   1.787541133   3.083268041
  H    0.818486826   0.704439576   3.890828251
  H   -0.608986526  -0.288558922   3.616521816
  H   -0.563144312   0.826694153   4.979606435
  H   -0.531779120   1.655316919   2.029879171
  H   -0.504401228   2.764592239   3.378391692
  H   -2.791993690   0.828273941   2.743459242
  H   -2.812587912   2.561627022   2.435934745
  H   -2.776113539   1.960097654   4.093107443
