11
charge=0 charge_a=0 charge_b=0 selection_a=1-4 selection_b=5-11 scaling=1.50 benchmark_Eint=-0.618 benchmark_unit=kcal/mol group=PS
  P    0.249989303   1.289786471  -0.724751165
  P   -0.813318599  -0.225003873  -1.549528425
  H    0.185162046   2.107671099  -1.890267312
  H   -0.745315531  -1.039915644  -0.385333713
  C    0.460920344  -1.728607288   3.650094941
  C    1.507559967  -1.823321926   3.074645446
  C    2.772406923  -1.931382421   2.368395231
  H   -0.464113322  -1.641242793   4.161158859
  H    3.487851962  -2.525208295   2.937240458
  H    3.203885183  -0.945021225   2.198792912
  H    2.634260949  -2.405046284   1.396380623
