11
charge=0 charge_a=0 charge_b=0 selection_a=1-4 selection_b=5-11 scaling=0.85 benchmark_Eint=-0.422 benchmark_unit=kcal/mol group=PS
  P    0.249989303   1.289786471  -0.724751165
  P   -0.813318599  -0.225003873  -1.549528425
  H    0.185162046   2.107671099  -1.890267312
  H   -0.745315531  -1.039915644  -0.385333713
  C   -0.239565056  -0.868244746   2.147077857
  C    0.807074567  -0.962959384   1.571628362
  C    2.071921523  -1.071019879   0.865378147
  H   -1.164598722  -0.780880251   2.658141775
  H    2.787366562  -1.664845753   1.434223374
  H    2.503399783  -0.084658683   0.695775828
  H    1.933775549  -1.544683742  -0.106636461
