13
charge=0 charge_a=0 charge_b=0 selection_a=1-4 selection_b=5-13 scaling=1.25 benchmark_Eint=-1.657 benchmark_unit=kcal/mol group=PS
  P   -0.561759224   0.503451777   0.829917937
  P    1.200258858   0.785672221  -0.447943224
  P   -0.684059014   0.050245946  -1.326160290
  P    0.495774696  -1.239421464   0.019935608
  C    2.869483804   0.267189549   3.689949949
  C    3.532884276  -0.765969006   3.188145673
  C    4.698142884  -0.669931501   2.256762985
  H    2.031431897   0.132504271   4.358626800
  H    3.141288872   1.286258849   3.445917658
  H    3.220301193  -1.769113615   3.459405879
  H    4.938584263   0.366668061   2.025368237
  H    4.491137988  -1.189393772   1.319171671
  H    5.583971197  -1.140198406   2.688824407
