26
charge=0 charge_a=0 charge_b=0 selection_a=1-11 selection_b=12-26 scaling=0.95 benchmark_Eint=-3.739 benchmark_unit=kcal/mol group=PS
  C   -1.854091457   1.383367785  -0.915186891
  C   -0.506630040   1.725637734  -0.905543291
  C    0.489537481   0.907490924  -1.412339763
  P    0.238106309  -0.649274014  -2.128569812
  C   -1.486136685  -0.772433476  -2.002231916
  C   -2.319162851   0.182794748  -1.440807404
  H   -2.568862765   2.078447178  -0.496956636
  H   -0.225575705   2.676548781  -0.469919723
  H    1.513380370   1.251403185  -1.344319990
  H   -1.938792836  -1.677309250  -2.388863631
  H   -3.385075048  -0.008770639  -1.410746403
  C    0.154444377   0.286347850   1.967309258
  C   -0.761685132   1.340247665   2.524384507
  C    1.526949547   0.505680844   1.870605576
  C    2.374572553  -0.474244812   1.368692088
  C    1.859170075  -1.693345133   0.950537483
  C    0.491103413  -1.922195371   1.037803650
  C   -0.350410295  -0.940916798   1.541566073
  H   -0.321491593   2.332680168   2.440860598
  H   -0.969266379   1.160739047   3.581202229
  H   -1.715846332   1.346421494   1.999649404
  H    1.935550544   1.456790023   2.186227247
  H    3.436152513  -0.281963836   1.298382778
  H    2.513245795  -2.453235308   0.548024643
  H    0.077887280  -2.861619055   0.699291845
  H   -1.415914983  -1.121283883   1.587550568
