24
charge=0 charge_a=0 charge_b=0 selection_a=1-4 selection_b=5-24 scaling=2.00 benchmark_Eint=-0.252 benchmark_unit=kcal/mol group=PS
  P    1.738150796   1.083481706  -1.090226209
  P    0.404410134  -0.291086858  -1.749088734
  H    2.849300885   0.465372411  -1.731447279
  H   -0.710105233   0.322966202  -1.110642249
  C   -0.179962487  -2.212995655   4.256157177
  C   -1.170478042  -1.359322331   5.076026189
  C   -1.113972546   0.111681237   4.645274610
  C   -2.583780543  -1.897118658   4.818797894
  C   -0.862409682  -1.464593134   6.574824995
  C    1.291495351  -1.823310416   4.344538865
  H   -0.490230351  -2.180366123   3.207963367
  H   -0.292307075  -3.254960939   4.567199510
  H   -0.138495633   0.554466828   4.840588655
  H   -1.320943760   0.216771399   3.580086173
  H   -1.856611450   0.696949514   5.188735820
  H   -2.665373742  -2.943206767   5.117290968
  H   -2.840243376  -1.830412297   3.760463841
  H   -3.326878025  -1.329337752   5.380037321
  H   -0.878341954  -2.504316846   6.905271140
  H    0.115686439  -1.049958140   6.815399016
  H   -1.603831668  -0.917132694   7.158013742
  H    1.463764203  -0.810057577   3.982635461
  H    1.666921189  -1.879855840   5.365634124
  H    1.898576614  -2.491972784   3.734583509
