29
charge=0 charge_a=0 charge_b=0 selection_a=1-11 selection_b=12-29 scaling=1.10 benchmark_Eint=-2.864 benchmark_unit=kcal/mol group=PS
  C    2.030302967   1.050348936  -1.257717547
  C    2.312918193   0.743421549   0.068908380
  C    1.977926985  -0.466994216   0.655487412
  P    1.165283471  -1.775317262  -0.138423659
  C    0.963690382  -1.097819218  -1.720894480
  C    1.383777673   0.163712660  -2.112528005
  H    2.322314596   2.018620613  -1.639408481
  H    2.815980100   1.491022043   0.669741671
  H    2.234264928  -0.614659367   1.697175647
  H    0.462378348  -1.717122330  -2.454272378
  H    1.198192803   0.480925886  -3.131348390
  C   -1.840969350   1.004717650   0.547892359
  C   -1.552581008   0.945745567   2.048618070
  C   -2.845005272   0.910776551   2.866578049
  C   -3.750604758  -0.242218139   2.427334289
  C   -4.039772090  -0.185615009   0.925472330
  C   -2.745533778  -0.148342100   0.110555183
  H   -0.909547522   0.987234523  -0.015586090
  H   -2.332546317   1.954633921   0.314566368
  H   -0.934795654   1.794258249   2.348436800
  H   -0.968374027   0.046215821   2.261382951
  H   -3.379940380   1.856344525   2.733760988
  H   -2.618274346   0.828333708   3.931085082
  H   -4.683605976  -0.227595935   2.993452143
  H   -3.258484595  -1.191401949   2.660392725
  H   -4.627411238   0.711799686   0.707936454
  H   -4.651703758  -1.038488375   0.626526914
  H   -2.968617654  -0.070446892  -0.955095236
  H   -2.208113935  -1.091147082   0.246584508
