22
charge=0 charge_a=0 charge_b=0 selection_a=1-4 selection_b=5-22 scaling=0.80 benchmark_Eint=0.439 benchmark_unit=kcal/mol group=PS
  P   -0.623827727   1.534759781  -1.481277894
  P   -2.044198145   0.171916898  -1.960323954
  H   -1.158370943   2.543784954  -2.332877284
  H   -1.515497822  -0.840443214  -1.112106222
  C    1.790452306   0.374740796   1.166025134
  C    0.702279249   0.001924581   2.175119285
  C   -0.481216852  -0.685669870   1.491176879
  C   -0.029819955  -1.901529169   0.679111035
  C    1.064344381  -1.533398598  -0.325306803
  C    2.245686157  -0.844135535   0.360731386
  H    2.640926884   0.828081760   1.678012093
  H    1.397755540   1.130017057   0.479750718
  H    0.363395311   0.890145591   2.710934256
  H    1.124641647  -0.673409977   2.925645884
  H   -0.971375650   0.030216195   0.825771229
  H   -1.226656516  -0.982066691   2.231136205
  H   -0.881578432  -2.349482057   0.163448134
  H    0.354388867  -2.665148252   1.362203075
  H    0.649402603  -0.859383094  -1.079776321
  H    1.402454004  -2.423971853  -0.857868241
  H    2.992113088  -0.550902560  -0.379335977
  H    2.734927844  -1.556053546   1.032753582
