26
charge=0 charge_a=0 charge_b=0 selection_a=1-11 selection_b=12-26 scaling=0.80 benchmark_Eint=2.624 benchmark_unit=kcal/mol group=PS
  C   -1.854091457   1.383367785  -0.915186891
  C   -0.506630040   1.725637734  -0.905543291
  C    0.489537481   0.907490924  -1.412339763
  P    0.238106309  -0.649274014  -2.128569812
  C   -1.486136685  -0.772433476  -2.002231916
  C   -2.319162851   0.182794748  -1.440807404
  H   -2.568862765   2.078447178  -0.496956636
  H   -0.225575705   2.676548781  -0.469919723
  H    1.513380370   1.251403185  -1.344319990
  H   -1.938792836  -1.677309250  -2.388863631
  H   -3.385075048  -0.008770639  -1.410746403
  C   -0.018617193   0.364574169   1.579134721
  C   -0.934746702   1.418473984   2.136209970
  C    1.353887977   0.583907163   1.482431039
  C    2.201510983  -0.396018493   0.980517551
  C    1.686108505  -1.615118814   0.562362946
  C    0.318041843  -1.843969052   0.649629113
  C   -0.523471865  -0.862690479   1.153391536
  H   -0.494553163   2.410906487   2.052686061
  H   -1.142327949   1.238965366   3.193027692
  H   -1.888907902   1.424647813   1.611474867
  H    1.762488974   1.535016342   1.798052710
  H    3.263090943  -0.203737517   0.910208241
  H    2.340184225  -2.375008989   0.159850106
  H   -0.095174290  -2.783392736   0.311117308
  H   -1.588976553  -1.043057564   1.199376031
