26
charge=0 charge_a=0 charge_b=0 selection_a=1-6 selection_b=7-26 scaling=0.90 benchmark_Eint=-2.066 benchmark_unit=kcal/mol group=PS
  P    1.524109802  -0.272975532   1.240280893
  P   -0.402900400  -0.764310213   2.288179425
  H    2.140764049   0.185213595   2.433394222
  H    1.129193307   1.034504363   0.863413703
  H    0.183620276  -1.813520713   3.042022628
  H   -0.865394228  -1.654401144   1.286427999
  C   -3.046511545  -0.310368313  -0.880059941
  C   -1.916525278   0.607450372  -1.355331286
  C   -1.710331192   1.726349127  -0.330407227
  C   -0.615011512  -0.169673760  -1.648794479
  C   -0.827958487  -1.300597869  -2.658540109
  C    0.509361805   0.744296489  -2.141186149
  H   -3.934839440   0.271629815  -0.635006040
  H   -2.750916099  -0.851888389   0.020825438
  H   -3.331389840  -1.042431247  -1.632285126
  H   -2.231571923   1.069196626  -2.298153729
  H   -1.360023341   1.322339517   0.621636272
  H   -2.649826394   2.243267523  -0.135434766
  H   -0.990674114   2.470224076  -0.664435285
  H   -0.290339278  -0.626596077  -0.707813029
  H   -1.228714390  -0.909300518  -3.596286163
  H   -1.515233751  -2.059881716  -2.292255114
  H    0.117051137  -1.794376448  -2.884079224
  H    0.212322410   1.257997895  -3.058096230
  H    1.405182083   0.164210061  -2.361113538
  H    0.782909808   1.500554897  -1.409293231
