26
charge=0 charge_a=0 charge_b=0 selection_a=1-11 selection_b=12-26 scaling=1.05 benchmark_Eint=-3.963 benchmark_unit=kcal/mol group=PS
  C   -1.854091457   1.383367785  -0.915186891
  C   -0.506630040   1.725637734  -0.905543291
  C    0.489537481   0.907490924  -1.412339763
  P    0.238106309  -0.649274014  -2.128569812
  C   -1.486136685  -0.772433476  -2.002231916
  C   -2.319162851   0.182794748  -1.440807404
  H   -2.568862765   2.078447178  -0.496956636
  H   -0.225575705   2.676548781  -0.469919723
  H    1.513380370   1.251403185  -1.344319990
  H   -1.938792836  -1.677309250  -2.388863631
  H   -3.385075048  -0.008770639  -1.410746403
  C    0.269818757   0.234196970   2.226092282
  C   -0.646310752   1.288096785   2.783167531
  C    1.642323927   0.453529964   2.129388600
  C    2.489946933  -0.526395692   1.627475112
  C    1.974544455  -1.745496013   1.209320507
  C    0.606477793  -1.974346251   1.296586674
  C   -0.235035915  -0.993067678   1.800349097
  H   -0.206117213   2.280529288   2.699643622
  H   -0.853891999   1.108588167   3.839985253
  H   -1.600471952   1.294270614   2.258432428
  H    2.050924924   1.404639143   2.445010271
  H    3.551526893  -0.334114716   1.557165802
  H    2.628620175  -2.505386188   0.806807667
  H    0.193261660  -2.913769935   0.958074869
  H   -1.300540603  -1.173434763   1.846333592
