16
charge=0 charge_a=0 charge_b=0 selection_a=1-4 selection_b=5-16 scaling=0.85 benchmark_Eint=1.124 benchmark_unit=kcal/mol group=PS
  P    0.740343242  -0.109666067  -2.198757453
  P   -1.088000779   0.144436434  -1.361055529
  H    1.007098231   1.285254183  -2.302514125
  H   -1.354841177  -1.250553498  -1.258196036
  C    1.436266583  -1.316352138   0.600560397
  C    0.194183707  -1.076236749   1.168609827
  C   -0.239356464   0.232120124   1.365584394
  C    0.582206715   1.299050116   1.016840617
  C    1.822260123   1.059004333   0.444314687
  C    2.245097806  -0.249161177   0.223908848
  H    1.769522252  -2.330495590   0.433461862
  H   -0.442095946  -1.903076704   1.450197720
  H   -1.209553815   0.419180116   1.802856016
  H    0.245365925   2.313266164   1.176143345
  H    2.457344916   1.885886318   0.160092644
  H    3.208859282  -0.436067755  -0.227471788
