13
charge=0 charge_a=0 charge_b=0 selection_a=1-6 selection_b=7-13 scaling=0.80 benchmark_Eint=2.267 benchmark_unit=kcal/mol group=PS
  P   -1.145716906  -1.014204974  -0.766505256
  P    0.322438558  -1.155180799   0.925706544
  H   -0.710221016  -2.221547615  -1.371863400
  H   -0.325858108  -0.212312726  -1.595662662
  H    0.018129448  -2.509745551   1.214078169
  H   -0.556125204  -0.661372485   1.918607526
  C   -1.128740916   1.619031289   0.496260385
  C    0.036452550   1.661150113   0.218838583
  C    1.448654531   1.696730372  -0.121373814
  H   -2.160754243   1.582042879   0.737651858
  H    1.885778460   0.701222789  -0.041179040
  H    1.993795639   2.360079744   0.550063273
  H    1.593914989   2.053752350  -1.140958053
