18
charge=0 charge_a=0 charge_b=0 selection_a=1-3 selection_b=4-18 scaling=1.10 benchmark_Eint=-2.566 benchmark_unit=kcal/mol group=PS
  S   -0.451159364  -0.771025649  -2.159082119
  C   -0.953051153   0.414365971  -1.293452422
  S   -1.443648122   1.597501037  -0.417650340
  C    2.675515774   0.400725631   0.503856852
  C    2.057398480   0.207357708   1.892758218
  C    3.046884515  -1.023664660   0.041738548
  C    1.257559005  -1.091055479   1.745290584
  C    2.141735091  -1.988285585   0.856511114
  H    1.930806657   0.829524010  -0.167152300
  H    3.529956917   1.076094225   0.507544774
  H    2.846228341   0.076551697   2.637603129
  H    1.445824257   1.051885786   2.208368263
  H    2.908303706  -1.143151923  -1.031327449
  H    4.097071541  -1.227965096   0.247933699
  H    1.015959237  -1.555105272   2.700601277
  H    0.313223898  -0.879651581   1.242928405
  H    1.543033104  -2.630112177   0.212569563
  H    2.753303099  -2.644883691   1.474896589
