26
charge=0 charge_a=0 charge_b=0 selection_a=1-9 selection_b=10-26 scaling=2.00 benchmark_Eint=-0.187 benchmark_unit=kcal/mol group=PS
  C   -0.342545945   1.447819733  -1.581452544
  C   -0.648528556   0.104633826  -1.933019628
  C    0.469341262  -0.646100019  -2.154583185
  S    1.900742687   0.277199832  -1.937448913
  C    1.000603391   1.686283672  -1.545293570
  H   -1.085181335   2.198612167  -1.361866058
  H   -1.651052705  -0.285291575  -2.012771142
  H    0.530149208  -1.684645719  -2.428190413
  H    1.507420533   2.604633375  -1.306746225
  C   -2.594154813  -1.025202551   4.567787047
  C   -1.404646664  -1.937630088   4.890092034
  C   -1.436543032  -2.314751238   6.375468834
  C   -1.491452841  -3.208828928   4.036913003
  C   -0.097858381  -1.200824565   4.574243838
  H   -3.540226925  -1.526458134   4.777961175
  H   -2.588338530  -0.738335641   3.516481497
  H   -2.558641208  -0.112628962   5.164665599
  H   -2.358102134  -2.842023492   6.626680953
  H   -1.376357150  -1.426372383   7.005865250
  H   -0.598413775  -2.964356857   6.631884051
  H   -2.415744948  -3.752703880   4.238016987
  H   -0.656250129  -3.878099027   4.248722271
  H   -1.464959189  -2.964730611   2.975231493
  H   -0.008867805  -0.291842761   5.171198644
  H   -0.052299914  -0.917720322   3.523899244
  H    0.766804642  -1.829636677   4.791371630
