27
charge=0 charge_a=0 charge_b=0 selection_a=1-9 selection_b=10-27 scaling=1.10 benchmark_Eint=-2.385 benchmark_unit=kcal/mol group=PS
  C   -1.556991511  -2.891063823  -0.740390583
  S   -2.161341810  -1.328765340  -0.054127104
  C   -1.888763659  -0.252744407  -1.483596682
  H   -1.669643120  -3.646491376   0.033382448
  H   -0.504725395  -2.817618518  -1.010157278
  H   -2.140461167  -3.186804959  -1.610473077
  H   -2.205699867   0.747620900  -1.199033068
  H   -2.477840641  -0.581075382  -2.338005535
  H   -0.834443567  -0.222516511  -1.752952306
  C    1.953423953  -0.648575192   0.459959378
  C    2.814071230   0.301751423  -0.374895834
  C    2.100587312   1.633230564  -0.619365299
  C    1.662633793   2.281543700   0.695690420
  C    0.802151948   1.330258805   1.529716468
  C    1.512058798  -0.002477011   1.774466601
  H    2.495430235  -1.575393958   0.656664685
  H    1.061163241  -0.921874043  -0.108386540
  H    3.081113365  -0.164471406  -1.325179758
  H    3.753551421   0.492557744   0.152848828
  H    1.218266753   1.458540199  -1.242620959
  H    2.746535502   2.311341644  -1.179789610
  H    1.120060027   3.207722045   0.497737118
  H    2.552365785   2.558603989   1.269645021
  H   -0.136636955   1.134341007   1.005627604
  H    0.536895934   1.796424734   2.480127303
  H    0.854699522  -0.679850942   2.320641954
  H    2.390433539   0.166512283   2.405258409
