18
charge=0 charge_a=0 charge_b=0 selection_a=1-10 selection_b=11-18 scaling=0.95 benchmark_Eint=-2.345 benchmark_unit=kcal/mol group=PS
  C    0.986761226   1.162092023  -3.178903163
  S    0.072215323   0.943004115  -1.618566278
  S   -0.598884237  -0.984212325  -1.751132586
  C   -2.212974811  -0.799994550  -2.573671955
  H    1.417661259   2.161954795  -3.139016543
  H    0.322818494   1.093266580  -4.036167124
  H    1.782527421   0.427258790  -3.258316378
  H   -2.645804434  -1.798672988  -2.621255755
  H   -2.097848334  -0.411802554  -3.581909277
  H   -2.860243452  -0.150923608  -1.991106978
  C    1.214064495  -0.287085502   1.298015320
  C    0.396926606  -1.336087804   1.238611662
  C   -0.836992933  -0.385732279   1.454095946
  C   -0.018412447   0.662446540   1.515397237
  H    2.278046376  -0.141171142   1.209833914
  H    0.521101942  -2.395167908   1.085190282
  H   -1.903413294  -0.527718918   1.513401039
  H   -0.145850113   1.724906369   1.641772214
