17
charge=0 charge_a=0 charge_b=0 selection_a=1-3 selection_b=4-17 scaling=1.05 benchmark_Eint=-2.352 benchmark_unit=kcal/mol group=PS
  S    0.685397513   1.791371661  -1.137835551
  C   -0.442217052   0.735901880  -0.987698433
  S   -1.566357362  -0.320725415  -0.827049601
  C   -1.405275731   0.124394031   3.474997808
  C   -0.004193411   0.133767837   2.871970133
  C    0.484237983  -1.256609841   2.472617079
  C    1.857091783  -1.241931832   1.807088162
  H   -1.727067301   1.126417630   3.758392438
  H   -1.445729218  -0.502846918   4.366910030
  H   -2.132321373  -0.268528491   2.762663411
  H    0.701497262   0.570171686   3.584091738
  H    0.011241323   0.785327218   1.995820677
  H   -0.243760201  -1.708881785   1.794750167
  H    0.510660968  -1.895040204   3.359843020
  H    1.842831466  -0.644306218   0.895168789
  H    2.184116681  -2.246972519   1.540924956
  H    2.610015115  -0.811978392   2.469636335
