20
charge=0 charge_a=0 charge_b=0 selection_a=1-8 selection_b=9-20 scaling=0.95 benchmark_Eint=-4.120 benchmark_unit=kcal/mol group=PS
  C   -0.373733306   0.424606211  -0.843000186
  S   -0.187551078  -1.358155076  -1.214299623
  C   -1.366509206  -1.041717828  -2.584186792
  S   -1.633322194   0.716260127  -2.143712898
  H    0.541117736   0.982517654  -1.009600313
  H   -0.742780031   0.605570290   0.159970034
  H   -2.270977577  -1.637176006  -2.506014992
  H   -0.916779414  -1.165405607  -3.565077678
  C    2.425926560   0.575764585   1.151232555
  C    2.044900672  -0.761331800   1.140696434
  C    0.941641264  -1.175283605   1.878772517
  C    0.220337293  -0.252069873   2.626976243
  C    0.601350279   1.084867819   2.637045455
  C    1.704524509   1.498984303   1.898978658
  H    3.282736465   0.897199989   0.575943214
  H    2.601144343  -1.477820414   0.553832726
  H    0.640382325  -2.212419039   1.863180687
  H   -0.638947794  -0.573790153   3.198172402
  H    0.039703217   1.802570104   3.218270143
  H    2.000509395   2.538531792   1.906368748
