9
charge=0 charge_a=0 charge_b=0 selection_a=1-3 selection_b=4-9 scaling=0.80 benchmark_Eint=1.659 benchmark_unit=kcal/mol group=PS
  S    1.284712371  -0.126459765  -0.777856471
  C   -0.210090189   0.140463385  -0.466749640
  S   -1.706772535   0.401201710  -0.144337285
  C   -0.293727041  -1.990415225   1.796207986
  C    0.034383256  -0.892798804   2.459044911
  H   -0.004070085  -2.973031527   2.143426495
  H   -0.864962229  -1.948827666   0.878866274
  H    0.606263477  -0.931345097   3.376358606
  H   -0.255968360   0.088452967   2.109183696
