27
charge=0 charge_a=0 charge_b=0 selection_a=1-9 selection_b=10-27 scaling=0.85 benchmark_Eint=-1.004 benchmark_unit=kcal/mol group=PS
  C   -0.007612903   2.506427674  -0.787288073
  C   -0.534964552   1.444380048  -1.571754692
  C    0.438411818   0.630577170  -2.073190713
  S    2.003012906   1.150638336  -1.593543525
  C    1.354531738   2.474988504  -0.711994786
  H   -0.612589074   3.254054153  -0.298979285
  H   -1.587535074   1.291029831  -1.750458885
  H    0.323341621  -0.243462227  -2.689437104
  H    2.008156047   3.149567507  -0.187666774
  C    0.412543987  -1.579809618   0.452516970
  C    0.365163391  -0.270140212   1.240763086
  C   -1.075637524   0.148887962   1.536410985
  C   -1.847750314  -0.961797245   2.251519417
  C   -1.797733947  -2.272547334   1.462992766
  C   -0.356088358  -2.692877945   1.167329051
  H    1.447665253  -1.880436295   0.281693134
  H   -0.029575606  -1.413485104  -0.533690850
  H    0.880725087   0.517825908   0.694167776
  H    0.900946440  -0.401907574   2.186242351
  H   -1.575639507   0.385066765   0.592833990
  H   -1.088457597   1.063994253   2.131181003
  H   -2.883547373  -0.659196197   2.415967663
  H   -1.409286741  -1.123490342   3.241165241
  H   -2.332258676  -2.140802522   0.516985064
  H   -2.318701158  -3.062133498   2.007434377
  H   -0.344028183  -3.606738659   0.570510314
  H    0.147705493  -2.929302348   2.109717397
