15
charge=0 charge_a=0 charge_b=0 selection_a=1-9 selection_b=10-15 scaling=1.10 benchmark_Eint=-2.819 benchmark_unit=kcal/mol group=PS
  C   -0.040787182   1.264421749  -2.303116357
  C    0.156406959  -0.097374146  -2.663599901
  C   -0.916606159  -0.882359887  -2.349099524
  S   -2.171155019   0.031012168  -1.614629366
  C   -1.258075543   1.480696657  -1.723669461
  H    0.687892468   2.043343609  -2.463188724
  H    1.050947935  -0.474642419  -3.133771510
  H   -1.036354665  -1.939631764  -2.507499729
  H   -1.662427943   2.405268628  -1.351167334
  C    0.903160555  -0.588158643   5.011907117
  C    0.802768452  -0.496224429   3.815918424
  C    0.689044924  -0.392199584   2.461590599
  C    0.586654934  -0.299939131   1.265726300
  H    0.991616582  -0.669421351   6.065653389
  H    0.498008671  -0.219118357   0.209764615
