24
charge=0 charge_a=0 charge_b=0 selection_a=1-12 selection_b=13-24 scaling=0.85 benchmark_Eint=-3.061 benchmark_unit=kcal/mol group=PS
  S    1.063591690  -1.185973345   0.153336523
  C   -0.400457060  -0.507258957  -0.670258210
  S   -0.281528080   1.220015768  -1.204177110
  C    1.003808573   1.023988054  -2.469602926
  S    2.641593421   0.514019169  -1.875557919
  C    2.212000308  -1.135192086  -1.250396785
  H   -1.210171765  -0.554409714   0.048892164
  H   -0.657393212  -1.132754190  -1.524467917
  H    1.136888325   1.998946053  -2.929949417
  H    0.662037264   0.327132954  -3.234357546
  H    3.140801296  -1.582047589  -0.907183906
  H    1.820336497  -1.741819365  -2.066410920
  C   -3.046769689   0.348781372   1.253716828
  C   -2.145799388   1.403738257   1.348099373
  C   -0.922088842   1.218522988   1.980628787
  C   -0.599534832  -0.020368237   2.521380690
  C   -1.499403635  -1.075948529   2.427275072
  C   -2.723274029  -0.891806832   1.792820744
  H   -3.996134263   0.491745352   0.757275607
  H   -2.391244321   2.364375853   0.918794644
  H   -0.213543586   2.031721583   2.034402006
  H    0.357534466  -0.166838465   2.999866659
  H   -1.244301569  -2.041429018   2.840342583
  H   -3.421665521  -1.713240677   1.716511312
