10
charge=0 charge_a=0 charge_b=0 selection_a=1-6 selection_b=7-10 scaling=1.50 benchmark_Eint=-0.585 benchmark_unit=kcal/mol group=PS
  S    0.702863616  -1.980754680  -0.555542775
  S   -1.120820265  -1.379384569  -1.344564298
  S   -1.822745157  -0.049153375   0.088274569
  S   -0.621126063   1.617669122  -0.199083022
  S    1.199741993   1.011610060   0.589076098
  S    1.905908092  -0.313524022  -0.846090519
  C   -1.525667825   2.295878776   5.509687018
  C   -1.226878386   1.251761851   5.009694833
  H   -1.790871184   3.222183464   5.954335120
  H   -0.961582079   0.332746809   4.550422619
