17
charge=0 charge_a=0 charge_b=0 selection_a=1-9 selection_b=10-17 scaling=1.05 benchmark_Eint=-2.132 benchmark_unit=kcal/mol group=PS
  C   -0.768984770   1.281482857   0.210946546
  C   -1.650497291   0.179707798   0.033534609
  C   -1.147589048  -0.761256249  -0.816903497
  S    0.401898989  -0.313857430  -1.405285575
  C    0.383358998   1.150850556  -0.508321578
  H   -0.980715182   2.128172060   0.844862734
  H   -2.610316027   0.090468448   0.517611239
  H   -1.595425180  -1.690371600  -1.121906926
  H    1.217372764   1.828393831  -0.558626057
  C    1.037699442  -1.846391064   2.297561526
  C    0.645885902  -3.126539431   1.566021429
  H    0.688731826  -0.964926606   1.762951303
  H    2.120137842  -1.765259437   2.399960595
  H    0.609713681  -1.816899697   3.300045817
  H    1.076849847  -3.154377761   0.565518251
  H   -0.436028596  -3.201375517   1.457122359
  H    0.987894807  -4.013478479   2.100195431
