10
charge=0 charge_a=0 charge_b=0 selection_a=1-3 selection_b=4-10 scaling=0.85 benchmark_Eint=-0.223 benchmark_unit=kcal/mol group=PS
  S    0.019695183   1.320030593  -1.831301774
  C   -0.655161594  -0.068913819  -1.683696246
  S   -1.325501519  -1.459060841  -1.526674898
  C   -0.589376115   0.225560830   1.742883295
  C    0.366141789  -0.234596226   1.185987701
  C    1.519062910  -0.792091901   0.499979511
  H   -1.435467705   0.633347146   2.235016133
  H    2.017523953  -0.031309477  -0.100433037
  H    1.217767560  -1.600305592  -0.166481221
  H    2.242264654  -1.190993155   1.211218857
