18
charge=0 charge_a=0 charge_b=0 selection_a=1-9 selection_b=10-18 scaling=1.25 benchmark_Eint=-1.589 benchmark_unit=kcal/mol group=PS
  C   -1.342558526   0.120314812  -1.384357231
  C   -0.029810112   0.662631413  -1.313835748
  C    0.179767193   1.378730697  -0.171379543
  S   -1.217893926   1.396233471   0.826086377
  C   -2.098830719   0.436186464  -0.293068457
  H   -1.704958781  -0.478595369  -2.204997309
  H    0.722420437   0.523260062  -2.074179817
  H    1.073619003   1.890399994   0.138940020
  H   -3.116580776   0.157096667  -0.084651277
  C    0.570789872  -3.976600596   1.694424911
  C    0.685155428  -2.656344954   1.637463422
  C    1.623573204  -1.840377365   2.467013142
  H   -0.128764297  -4.511363316   1.067280374
  H    1.173099743  -4.570243315   2.371107889
  H    0.061958094  -2.104154087   0.944187228
  H    2.216984322  -2.464797986   3.133846936
  H    1.075760055  -1.112675768   3.068854761
  H    2.302918330  -1.267497397   1.832651111
