18
charge=0 charge_a=0 charge_b=0 selection_a=1-9 selection_b=10-18 scaling=0.95 benchmark_Eint=-2.488 benchmark_unit=kcal/mol group=PS
  C   -1.342558526   0.120314812  -1.384357231
  C   -0.029810112   0.662631413  -1.313835748
  C    0.179767193   1.378730697  -0.171379543
  S   -1.217893926   1.396233471   0.826086377
  C   -2.098830719   0.436186464  -0.293068457
  H   -1.704958781  -0.478595369  -2.204997309
  H    0.722420437   0.523260062  -2.074179817
  H    1.073619003   1.890399994   0.138940020
  H   -3.116580776   0.157096667  -0.084651277
  C    0.219192468  -3.304878600   1.309118445
  C    0.333558024  -1.984622958   1.252156956
  C    1.271975800  -1.168655369   2.081706676
  H   -0.480361701  -3.839641320   0.681973908
  H    0.821502339  -3.898521319   1.985801423
  H   -0.289639310  -1.432432091   0.558880762
  H    1.865386918  -1.793075990   2.748540470
  H    0.724162651  -0.440953772   2.683548295
  H    1.951320926  -0.595775401   1.447344645
