18
charge=0 charge_a=0 charge_b=0 selection_a=1-9 selection_b=10-18 scaling=0.85 benchmark_Eint=-0.872 benchmark_unit=kcal/mol group=PS
  C   -1.342558526   0.120314812  -1.384357231
  C   -0.029810112   0.662631413  -1.313835748
  C    0.179767193   1.378730697  -0.171379543
  S   -1.217893926   1.396233471   0.826086377
  C   -2.098830719   0.436186464  -0.293068457
  H   -1.704958781  -0.478595369  -2.204997309
  H    0.722420437   0.523260062  -2.074179817
  H    1.073619003   1.890399994   0.138940020
  H   -3.116580776   0.157096667  -0.084651277
  C    0.101993333  -3.080971268   1.180682956
  C    0.216358889  -1.760715626   1.123721467
  C    1.154776665  -0.944748037   1.953271187
  H   -0.597560836  -3.615733988   0.553538419
  H    0.704303204  -3.674613987   1.857365934
  H   -0.406838445  -1.208524759   0.430445273
  H    1.748187783  -1.569168658   2.620104981
  H    0.606963516  -0.217046440   2.555112806
  H    1.834121791  -0.371868069   1.318909156
