27
charge=0 charge_a=0 charge_b=0 selection_a=1-9 selection_b=10-27 scaling=2.00 benchmark_Eint=-0.278 benchmark_unit=kcal/mol group=PS
  C   -1.556991511  -2.891063823  -0.740390583
  S   -2.161341810  -1.328765340  -0.054127104
  C   -1.888763659  -0.252744407  -1.483596682
  H   -1.669643120  -3.646491376   0.033382448
  H   -0.504725395  -2.817618518  -1.010157278
  H   -2.140461167  -3.186804959  -1.610473077
  H   -2.205699867   0.747620900  -1.199033068
  H   -2.477840641  -0.581075382  -2.338005535
  H   -0.834443567  -0.222516511  -1.752952306
  C    3.735381811   0.429064677   1.012966144
  C    4.596029088   1.379391292   0.178110932
  C    3.882545170   2.710870433  -0.066358533
  C    3.444591651   3.359183569   1.248697186
  C    2.584109806   2.407898674   2.082723234
  C    3.294016656   1.075162858   2.327473367
  H    4.277388093  -0.497754089   1.209671451
  H    2.843121099   0.155765826   0.444620226
  H    4.863071223   0.913168463  -0.772172992
  H    5.535509279   1.570197613   0.705855594
  H    3.000224611   2.536180068  -0.689614193
  H    4.528493360   3.388981513  -0.626782844
  H    2.902017885   4.285361914   1.050743884
  H    4.334323643   3.636243858   1.822651787
  H    1.645320903   2.211980876   1.558634370
  H    2.318853792   2.874064603   3.033134069
  H    2.636657380   0.397788927   2.873648720
  H    4.172391397   1.244152152   2.958265175
