27
charge=0 charge_a=0 charge_b=0 selection_a=1-9 selection_b=10-27 scaling=0.90 benchmark_Eint=-2.284 benchmark_unit=kcal/mol group=PS
  C   -0.007612903   2.506427674  -0.787288073
  C   -0.534964552   1.444380048  -1.571754692
  C    0.438411818   0.630577170  -2.073190713
  S    2.003012906   1.150638336  -1.593543525
  C    1.354531738   2.474988504  -0.711994786
  H   -0.612589074   3.254054153  -0.298979285
  H   -1.587535074   1.291029831  -1.750458885
  H    0.323341621  -0.243462227  -2.689437104
  H    2.008156047   3.149567507  -0.187666774
  C    0.356602352  -1.674379607   0.545270743
  C    0.309221756  -0.364710201   1.333516859
  C   -1.131579159   0.054317973   1.629164758
  C   -1.903691949  -1.056367234   2.344273190
  C   -1.853675582  -2.367117323   1.555746539
  C   -0.412029993  -2.787447934   1.260082824
  H    1.391723618  -1.975006284   0.374446907
  H   -0.085517241  -1.508055093  -0.440937077
  H    0.824783452   0.423255919   0.786921549
  H    0.845004805  -0.496477563   2.278996124
  H   -1.631581142   0.290496776   0.685587763
  H   -1.144399232   0.969424264   2.223934776
  H   -2.939489008  -0.753766186   2.508721436
  H   -1.465228376  -1.218060331   3.333919014
  H   -2.388200311  -2.235372511   0.609738837
  H   -2.374642793  -3.156703487   2.100188150
  H   -0.399969818  -3.701308648   0.663264087
  H    0.091763858  -3.023872337   2.202471170
