32
charge=0 charge_a=0 charge_b=0 selection_a=1-12 selection_b=13-32 scaling=0.90 benchmark_Eint=-2.924 benchmark_unit=kcal/mol group=PS
  S    0.309777920  -2.099330871  -1.996462898
  C   -1.411421927  -1.941802650  -1.445369680
  S   -1.728038560  -0.712954102  -0.149475792
  C   -1.304008175   0.786485983  -1.076320792
  S    0.427397996   0.950931505  -1.593293255
  C    0.512285805  -0.455651842  -2.735894814
  H   -1.688943455  -2.905390654  -1.027550697
  H   -2.051946461  -1.742582273  -2.303939242
  H   -1.506536567   1.621529112  -0.412768278
  H   -1.952481741   0.873217684  -1.947228371
  H    1.506848765  -0.435537899  -3.172356928
  H   -0.216199677  -0.322388588  -3.535038237
  C    0.250991430   2.290949321   1.846673662
  C    1.398252605   1.464236126   2.466015308
  C    1.223783526  -0.028683299   2.160850980
  C    2.713338383   1.947041555   1.840861654
  C    1.457220463   1.677357157   3.983423736
  C   -1.164465027   1.927402794   2.288295552
  H    0.324737986   2.196696908   0.761129466
  H    0.433999313   3.345499855   2.069896089
  H    0.331630972  -0.436606428   2.634036537
  H    1.140837080  -0.205221223   1.089345536
  H    2.080136858  -0.593162845   2.532524100
  H    2.871384806   3.010105748   2.030052130
  H    2.707854726   1.793258362   0.761295880
  H    3.563805437   1.403042069   2.253740946
  H    1.570945584   2.734992578   4.227546333
  H    0.557108605   1.312479372   4.477062672
  H    2.305566441   1.142464410   4.412143886
  H   -1.414295015   0.897356105   2.037978581
  H   -1.297715399   2.047812550   3.362732927
  H   -1.895980146   2.573143297   1.800623331
