23
charge=0 charge_a=0 charge_b=0 selection_a=1-6 selection_b=7-23 scaling=1.05 benchmark_Eint=-2.986 benchmark_unit=kcal/mol group=PS
  S   -1.653365135  -0.723933958  -0.567190953
  S   -1.207888776   1.053000041  -1.543867168
  S   -0.042340658   2.065172234  -0.155671943
  S    1.759125656   1.035532284  -0.221720658
  S    1.313730973  -0.742695581   0.751636387
  S    0.149191090  -1.751962721  -0.638542203
  C    0.595915760   1.561977690   4.057810967
  C   -0.920548008   1.491362935   4.243553020
  C   -1.569644981   2.814576930   3.833569482
  C   -1.499940932   0.299563365   3.472091412
  C   -2.986035524   0.044988249   3.705160907
  H    1.029558276   2.373964661   4.642310858
  H    0.847964991   1.735707907   3.010647282
  H    1.076973805   0.632232461   4.363233355
  H   -1.123377235   1.330881860   5.308097705
  H   -1.422861410   2.996236292   2.767076096
  H   -1.128447916   3.650428283   4.377301984
  H   -2.640681784   2.822867075   4.029441811
  H   -0.937193353  -0.596593913   3.745392510
  H   -1.319258968   0.451122359   2.407150301
  H   -3.200959994  -0.096702393   4.765869551
  H   -3.313971384  -0.851228172   3.178363157
  H   -3.599915329   0.872456445   3.351170054
