27
charge=0 charge_a=0 charge_b=0 selection_a=1-9 selection_b=10-27 scaling=1.25 benchmark_Eint=-1.788 benchmark_unit=kcal/mol group=PS
  C   -0.007612903   2.506427674  -0.787288073
  C   -0.534964552   1.444380048  -1.571754692
  C    0.438411818   0.630577170  -2.073190713
  S    2.003012906   1.150638336  -1.593543525
  C    1.354531738   2.474988504  -0.711994786
  H   -0.612589074   3.254054153  -0.298979285
  H   -1.587535074   1.291029831  -1.750458885
  H    0.323341621  -0.243462227  -2.689437104
  H    2.008156047   3.149567507  -0.187666774
  C   -0.034989090  -2.336369527   1.194547160
  C   -0.082369686  -1.026700121   1.982793276
  C   -1.523170601  -0.607671947   2.278441175
  C   -2.295283391  -1.718357154   2.993549607
  C   -2.245267024  -3.029107243   2.205022956
  C   -0.803621435  -3.449437854   1.909359241
  H    1.000132176  -2.636996204   1.023723324
  H   -0.477108683  -2.170045013   0.208339340
  H    0.433192010  -0.238734001   1.436197966
  H    0.453413363  -1.158467483   2.928272541
  H   -2.023172584  -0.371493144   1.334864180
  H   -1.535990674   0.307434344   2.873211193
  H   -3.331080450  -1.415756106   3.157997853
  H   -1.856819818  -1.880050251   3.983195431
  H   -2.779791753  -2.897362431   1.259015254
  H   -2.766234235  -3.818693407   2.749464567
  H   -0.791561260  -4.363298568   1.312540504
  H   -0.299827584  -3.685862257   2.851747587
