26
charge=0 charge_a=0 charge_b=0 selection_a=1-9 selection_b=10-26 scaling=1.10 benchmark_Eint=-2.499 benchmark_unit=kcal/mol group=PS
  C   -0.342545945   1.447819733  -1.581452544
  C   -0.648528556   0.104633826  -1.933019628
  C    0.469341262  -0.646100019  -2.154583185
  S    1.900742687   0.277199832  -1.937448913
  C    1.000603391   1.686283672  -1.545293570
  H   -1.085181335   2.198612167  -1.361866058
  H   -1.651052705  -0.285291575  -2.012771142
  H    0.530149208  -1.684645719  -2.428190413
  H    1.507420533   2.604633375  -1.306746225
  C   -1.823003741  -0.163215005   2.192770328
  C   -0.633495592  -1.075642542   2.515075315
  C   -0.665391960  -1.452763692   4.000452115
  C   -0.720301769  -2.346841382   1.661896284
  C    0.673292691  -0.338837019   2.199227119
  H   -2.769075853  -0.664470588   2.402944456
  H   -1.817187458   0.123651905   1.141464778
  H   -1.787490136   0.749358584   2.789648880
  H   -1.586951062  -1.980035946   4.251664234
  H   -0.605206078  -0.564384837   4.630848531
  H    0.172737297  -2.102369311   4.256867332
  H   -1.644593876  -2.890716334   1.863000268
  H    0.114900943  -3.016111481   1.873705552
  H   -0.693808117  -2.102743065   0.600214774
  H    0.762283267   0.570144785   2.796181925
  H    0.718851158  -0.055732776   1.148882525
  H    1.537955714  -0.967649131   2.416354911
