18
charge=0 charge_a=0 charge_b=0 selection_a=1-3 selection_b=4-18 scaling=1.00 benchmark_Eint=-2.877 benchmark_unit=kcal/mol group=PS
  S   -0.451159364  -0.771025649  -2.159082119
  C   -0.953051153   0.414365971  -1.293452422
  S   -1.443648122   1.597501037  -0.417650340
  C    2.451968483   0.478872478   0.342642508
  C    1.833851189   0.285504555   1.731543874
  C    2.823337224  -0.945517813  -0.119475796
  C    1.034011714  -1.012908632   1.584076240
  C    1.918187800  -1.910138738   0.695296770
  H    1.707259366   0.907670857  -0.328366644
  H    3.306409626   1.154241072   0.346330430
  H    2.622681050   0.154698544   2.476388785
  H    1.222276966   1.130032633   2.047153919
  H    2.684756415  -1.065005076  -1.192541793
  H    3.873524250  -1.149818249   0.086719355
  H    0.792411946  -1.476958425   2.539386933
  H    0.089676607  -0.801504734   1.081714061
  H    1.319485813  -2.551965330   0.051355219
  H    2.529755808  -2.566736844   1.313682245
