24
charge=0 charge_a=0 charge_b=0 selection_a=1-12 selection_b=13-24 scaling=0.80 benchmark_Eint=-0.007 benchmark_unit=kcal/mol group=PS
  S    1.063591690  -1.185973345   0.153336523
  C   -0.400457060  -0.507258957  -0.670258210
  S   -0.281528080   1.220015768  -1.204177110
  C    1.003808573   1.023988054  -2.469602926
  S    2.641593421   0.514019169  -1.875557919
  C    2.212000308  -1.135192086  -1.250396785
  H   -1.210171765  -0.554409714   0.048892164
  H   -0.657393212  -1.132754190  -1.524467917
  H    1.136888325   1.998946053  -2.929949417
  H    0.662037264   0.327132954  -3.234357546
  H    3.140801296  -1.582047589  -0.907183906
  H    1.820336497  -1.741819365  -2.066410920
  C   -2.952081371   0.345191949   1.154866594
  C   -2.051111070   1.400148834   1.249249139
  C   -0.827400524   1.214933565   1.881778553
  C   -0.504846514  -0.023957660   2.422530456
  C   -1.404715317  -1.079537952   2.328424838
  C   -2.628585711  -0.895396255   1.693970510
  H   -3.901445945   0.488155929   0.658425373
  H   -2.296556003   2.360786430   0.819944410
  H   -0.118855268   2.028132160   1.935551772
  H    0.452222784  -0.170427888   2.901016425
  H   -1.149613251  -2.045018441   2.741492349
  H   -3.326977203  -1.716830100   1.617661078
