18
charge=0 charge_a=0 charge_b=0 selection_a=1-3 selection_b=4-18 scaling=0.90 benchmark_Eint=-2.251 benchmark_unit=kcal/mol group=PS
  S   -0.451159364  -0.771025649  -2.159082119
  C   -0.953051153   0.414365971  -1.293452422
  S   -1.443648122   1.597501037  -0.417650340
  C    2.228421192   0.557019325   0.181428164
  C    1.610303898   0.363651402   1.570329530
  C    2.599789933  -0.867370966  -0.280690140
  C    0.810464423  -0.934761785   1.422861896
  C    1.694640509  -1.831991891   0.534082426
  H    1.483712075   0.985817704  -0.489580988
  H    3.082862335   1.232387919   0.185116086
  H    2.399133759   0.232845391   2.315174441
  H    0.998729675   1.208179480   1.885939575
  H    2.461209124  -0.986858229  -1.353756137
  H    3.649976959  -1.071671402  -0.074494989
  H    0.568864655  -1.398811578   2.378172589
  H   -0.133870684  -0.723357887   0.920499717
  H    1.095938522  -2.473818483  -0.109859125
  H    2.306208517  -2.488589997   1.152467901
