23
charge=0 charge_a=0 charge_b=0 selection_a=1-6 selection_b=7-23 scaling=1.00 benchmark_Eint=-2.974 benchmark_unit=kcal/mol group=PS
  S   -1.653365135  -0.723933958  -0.567190953
  S   -1.207888776   1.053000041  -1.543867168
  S   -0.042340658   2.065172234  -0.155671943
  S    1.759125656   1.035532284  -0.221720658
  S    1.313730973  -0.742695581   0.751636387
  S    0.149191090  -1.751962721  -0.638542203
  C    0.640648864   1.525373616   3.915310515
  C   -0.875814904   1.454758861   4.101052568
  C   -1.524911877   2.777972856   3.691069030
  C   -1.455207828   0.262959291   3.329590960
  C   -2.941302420   0.008384175   3.562660455
  H    1.074291380   2.337360587   4.499810406
  H    0.892698095   1.699103833   2.868146830
  H    1.121706909   0.595628387   4.220732903
  H   -1.078644131   1.294277786   5.165597253
  H   -1.378128306   2.959632218   2.624575644
  H   -1.083714812   3.613824209   4.234801532
  H   -2.595948680   2.786263001   3.886941359
  H   -0.892460249  -0.633197987   3.602892058
  H   -1.274525864   0.414518285   2.264649849
  H   -3.156226890  -0.133306467   4.623369099
  H   -3.269238280  -0.887832246   3.035862705
  H   -3.555182225   0.835852371   3.208669602
