18
charge=0 charge_a=0 charge_b=0 selection_a=1-3 selection_b=4-18 scaling=1.05 benchmark_Eint=-2.780 benchmark_unit=kcal/mol group=PS
  S   -0.451159364  -0.771025649  -2.159082119
  C   -0.953051153   0.414365971  -1.293452422
  S   -1.443648122   1.597501037  -0.417650340
  C    2.563742129   0.439799055   0.423249680
  C    1.945624835   0.246431132   1.812151046
  C    2.935110870  -0.984591236  -0.038868624
  C    1.145785360  -1.051982055   1.664683412
  C    2.029961446  -1.949212161   0.775903942
  H    1.819033012   0.868597434  -0.247759472
  H    3.418183272   1.115167649   0.426937602
  H    2.734454696   0.115625121   2.556995957
  H    1.334050612   1.090959210   2.127761091
  H    2.796530061  -1.104078499  -1.111934621
  H    3.985297896  -1.188891672   0.167326527
  H    0.904185592  -1.516031848   2.619994105
  H    0.201450253  -0.840578157   1.162321233
  H    1.431259459  -2.591038753   0.131962391
  H    2.641529454  -2.605810267   1.394289417
