24
charge=0 charge_a=0 charge_b=0 selection_a=1-12 selection_b=13-24 scaling=1.50 benchmark_Eint=-1.875 benchmark_unit=kcal/mol group=PS
  S    1.063591690  -1.185973345   0.153336523
  C   -0.400457060  -0.507258957  -0.670258210
  S   -0.281528080   1.220015768  -1.204177110
  C    1.003808573   1.023988054  -2.469602926
  S    2.641593421   0.514019169  -1.875557919
  C    2.212000308  -1.135192086  -1.250396785
  H   -1.210171765  -0.554409714   0.048892164
  H   -0.657393212  -1.132754190  -1.524467917
  H    1.136888325   1.998946053  -2.929949417
  H    0.662037264   0.327132954  -3.234357546
  H    3.140801296  -1.582047589  -0.907183906
  H    1.820336497  -1.741819365  -2.066410920
  C   -4.277717827   0.395443871   2.538769866
  C   -3.376747526   1.450400756   2.633152411
  C   -2.153036980   1.265185487   3.265681825
  C   -1.830482970   0.026294262   3.806433728
  C   -2.730351773  -1.029286030   3.712328110
  C   -3.954222167  -0.845144333   3.077873782
  H   -5.227082401   0.538407851   2.042328645
  H   -3.622192459   2.411038352   2.203847682
  H   -1.444491724   2.078384082   3.319455044
  H   -0.873413672  -0.120175966   4.284919697
  H   -2.475249707  -1.994766519   4.125395621
  H   -4.652613659  -1.666578178   3.001564350
