30
charge=0 charge_a=0 charge_b=0 selection_a=1-10 selection_b=11-30 scaling=2.00 benchmark_Eint=-0.373 benchmark_unit=kcal/mol group=PS
  C   -3.110892202   1.262974279  -1.981472145
  S   -1.768109144   1.297142144  -0.751859254
  S   -0.078024256   1.132769610  -1.895896265
  C    0.118760578  -0.664951695  -2.104955826
  H   -4.036319706   1.400617288  -1.423595979
  H   -3.143382443   0.306635839  -2.496016189
  H   -2.992085406   2.072782085  -2.695148064
  H    1.042940313  -0.804867673  -2.664286656
  H   -0.708421426  -1.084048220  -2.670811559
  H    0.203296931  -1.152553248  -1.138870188
  C    2.055616949  -1.031521406   3.701233794
  C    3.295655549  -0.127092103   3.863395714
  C    4.227892064  -0.253401841   2.651643532
  C    2.808591219   1.324356574   3.962001546
  C    4.063254472  -0.486816927   5.141207524
  C    2.317901253  -2.525925051   3.530545393
  H    1.481543311  -0.670283439   2.846479135
  H    1.413334053  -0.882280857   4.573149141
  H    4.635486192  -1.259469086   2.557867231
  H    3.700320919  -0.007517146   1.730216413
  H    5.069800515   0.433643048   2.746147942
  H    2.135612867   1.453987994   4.810899492
  H    2.272060567   1.616746962   3.059199691
  H    3.647562165   2.009398083   4.091557755
  H    3.417383045  -0.416600937   6.017947356
  H    4.465486529  -1.498621663   5.100057947
  H    4.902345362   0.194131493   5.289374595
  H    2.911362229  -2.735976099   2.640951379
  H    2.845619929  -2.947952734   4.385159833
  H    1.377023865  -3.067214846   3.429922525
