23
charge=0 charge_a=0 charge_b=0 selection_a=1-6 selection_b=7-23 scaling=0.80 benchmark_Eint=2.593 benchmark_unit=kcal/mol group=PS
  S   -1.653365135  -0.723933958  -0.567190953
  S   -1.207888776   1.053000041  -1.543867168
  S   -0.042340658   2.065172234  -0.155671943
  S    1.759125656   1.035532284  -0.221720658
  S    1.313730973  -0.742695581   0.751636387
  S    0.149191090  -1.751962721  -0.638542203
  C    0.819581278   1.378957320   3.345308707
  C   -0.696882490   1.308342565   3.531050760
  C   -1.345979463   2.631556560   3.121067222
  C   -1.276275414   0.116542995   2.759589152
  C   -2.762370006  -0.138032121   2.992658647
  H    1.253223794   2.190944291   3.929808598
  H    1.071630509   1.552687537   2.298145022
  H    1.300639323   0.449212091   3.650731095
  H   -0.899711717   1.147861490   4.595595445
  H   -1.199195892   2.813215922   2.054573836
  H   -0.904782398   3.467407913   3.664799724
  H   -2.417016266   2.639846705   3.316939551
  H   -0.713527835  -0.779614283   3.032890250
  H   -1.095593450   0.268101989   1.694648041
  H   -2.977294476  -0.279722763   4.053367291
  H   -3.090305866  -1.034248542   2.465860897
  H   -3.376249811   0.689436075   2.638667794
