17
charge=0 charge_a=0 charge_b=0 selection_a=1-3 selection_b=4-17 scaling=0.85 benchmark_Eint=-0.752 benchmark_unit=kcal/mol group=PS
  S    0.685397513   1.791371661  -1.137835551
  C   -0.442217052   0.735901880  -0.987698433
  S   -1.566357362  -0.320725415  -0.827049601
  C   -1.504311488   0.314910182   2.939779584
  C   -0.103229168   0.324283988   2.336751909
  C    0.385202226  -1.066093690   1.937398855
  C    1.758056026  -1.051415681   1.271869938
  H   -1.826103058   1.316933781   3.223174214
  H   -1.544764975  -0.312330767   3.831691806
  H   -2.231357130  -0.078012340   2.227445187
  H    0.602461505   0.760687837   3.048873514
  H   -0.087794434   0.975843369   1.460602453
  H   -0.342795958  -1.518365634   1.259531943
  H    0.411625211  -1.704524053   2.824624796
  H    1.743795709  -0.453790067   0.359950565
  H    2.085080924  -2.056456368   1.005706732
  H    2.510979358  -0.621462241   1.934418111
