17
charge=0 charge_a=0 charge_b=0 selection_a=1-3 selection_b=4-17 scaling=1.25 benchmark_Eint=-1.482 benchmark_unit=kcal/mol group=PS
  S    0.685397513   1.791371661  -1.137835551
  C   -0.442217052   0.735901880  -0.987698433
  S   -1.566357362  -0.320725415  -0.827049601
  C   -1.306239973  -0.066122119   4.010216032
  C    0.094842347  -0.056748313   3.407188357
  C    0.583273741  -1.447125991   3.007835303
  C    1.956127541  -1.432447982   2.342306386
  H   -1.628031543   0.935901480   4.293610662
  H   -1.346693460  -0.693363068   4.902128254
  H   -2.033285615  -0.459044641   3.297881635
  H    0.800533020   0.379655536   4.119309962
  H    0.110277081   0.594811068   2.531038901
  H   -0.144724443  -1.899397935   2.329968391
  H    0.609696726  -2.085556354   3.895061244
  H    1.941867224  -0.834822368   1.430387013
  H    2.283152439  -2.437488669   2.076143180
  H    2.709050873  -1.002494542   3.004854559
