24
charge=0 charge_a=0 charge_b=0 selection_a=1-12 selection_b=13-24 scaling=1.00 benchmark_Eint=-5.573 benchmark_unit=kcal/mol group=PS
  S    1.063591690  -1.185973345   0.153336523
  C   -0.400457060  -0.507258957  -0.670258210
  S   -0.281528080   1.220015768  -1.204177110
  C    1.003808573   1.023988054  -2.469602926
  S    2.641593421   0.514019169  -1.875557919
  C    2.212000308  -1.135192086  -1.250396785
  H   -1.210171765  -0.554409714   0.048892164
  H   -0.657393212  -1.132754190  -1.524467917
  H    1.136888325   1.998946053  -2.929949417
  H    0.662037264   0.327132954  -3.234357546
  H    3.140801296  -1.582047589  -0.907183906
  H    1.820336497  -1.741819365  -2.066410920
  C   -3.330834644   0.359549641   1.550267529
  C   -2.429864343   1.414506526   1.644650074
  C   -1.206153797   1.229291257   2.277179488
  C   -0.883599787  -0.009599968   2.817931391
  C   -1.783468590  -1.065180260   2.723825773
  C   -3.007338984  -0.881038563   2.089371445
  H   -4.280199218   0.502513621   1.053826308
  H   -2.675309276   2.375144122   1.215345345
  H   -0.497608541   2.042489852   2.330952707
  H    0.073469511  -0.156070196   3.296417360
  H   -1.528366524  -2.030660749   3.136893284
  H   -3.705730476  -1.702472408   2.013062013
