32
charge=0 charge_a=0 charge_b=0 selection_a=1-12 selection_b=13-32 scaling=2.00 benchmark_Eint=-0.417 benchmark_unit=kcal/mol group=PS
  S    0.309777920  -2.099330871  -1.996462898
  C   -1.411421927  -1.941802650  -1.445369680
  S   -1.728038560  -0.712954102  -0.149475792
  C   -1.304008175   0.786485983  -1.076320792
  S    0.427397996   0.950931505  -1.593293255
  C    0.512285805  -0.455651842  -2.735894814
  H   -1.688943455  -2.905390654  -1.027550697
  H   -2.051946461  -1.742582273  -2.303939242
  H   -1.506536567   1.621529112  -0.412768278
  H   -1.952481741   0.873217684  -1.947228371
  H    1.506848765  -0.435537899  -3.172356928
  H   -0.216199677  -0.322388588  -3.535038237
  C    1.088863401   3.533638463   4.088484508
  C    2.236124576   2.706925268   4.707826154
  C    2.061655497   1.214005843   4.402661826
  C    3.551210354   3.189730697   4.082672500
  C    2.295092434   2.920046299   6.225234582
  C   -0.326593056   3.170091936   4.530106398
  H    1.162609957   3.439386050   3.002940312
  H    1.271871284   4.588188997   4.311706935
  H    1.169502943   0.806082714   4.875847383
  H    1.978709051   1.037467919   3.331156382
  H    2.918008829   0.649526297   4.774334946
  H    3.709256777   4.252794890   4.271862976
  H    3.545726697   3.035947504   3.003106726
  H    4.401677408   2.645731211   4.495551792
  H    2.408817555   3.977681720   6.469357179
  H    1.394980576   2.555168514   6.718873518
  H    3.143438412   2.385153552   6.653954732
  H   -0.576423044   2.140045247   4.279789427
  H   -0.459843428   3.290501692   5.604543773
  H   -1.058108175   3.815832439   4.042434177
