17
charge=0 charge_a=0 charge_b=0 selection_a=1-3 selection_b=4-17 scaling=0.95 benchmark_Eint=-2.295 benchmark_unit=kcal/mol group=PS
  S    0.685397513   1.791371661  -1.137835551
  C   -0.442217052   0.735901880  -0.987698433
  S   -1.566357362  -0.320725415  -0.827049601
  C   -1.454793609   0.219652107   3.207388696
  C   -0.053711289   0.229025913   2.604361021
  C    0.434720105  -1.161351765   2.205007967
  C    1.807573905  -1.146673756   1.539479050
  H   -1.776585179   1.221675706   3.490783326
  H   -1.495247096  -0.407588842   4.099300918
  H   -2.181839251  -0.173270415   2.495054299
  H    0.651979384   0.665429762   3.316482626
  H   -0.038276555   0.880585294   1.728211565
  H   -0.293278079  -1.613623709   1.527141055
  H    0.461143090  -1.799782128   3.092233908
  H    1.793313588  -0.549048142   0.627559677
  H    2.134598803  -2.151714443   1.273315844
  H    2.560497237  -0.716720316   2.202027223
