23
charge=0 charge_a=0 charge_b=0 selection_a=1-6 selection_b=7-23 scaling=0.85 benchmark_Eint=-0.265 benchmark_unit=kcal/mol group=PS
  S   -1.653365135  -0.723933958  -0.567190953
  S   -1.207888776   1.053000041  -1.543867168
  S   -0.042340658   2.065172234  -0.155671943
  S    1.759125656   1.035532284  -0.221720658
  S    1.313730973  -0.742695581   0.751636387
  S    0.149191090  -1.751962721  -0.638542203
  C    0.774848175   1.415561394   3.487809159
  C   -0.741615593   1.344946639   3.673551212
  C   -1.390712566   2.668160634   3.263567674
  C   -1.321008517   0.153147069   2.902089604
  C   -2.807103109  -0.101428047   3.135159099
  H    1.208490691   2.227548365   4.072309050
  H    1.026897406   1.589291611   2.440645474
  H    1.255906220   0.485816165   3.793231547
  H   -0.944444820   1.184465564   4.738095897
  H   -1.243928995   2.849819996   2.197074288
  H   -0.949515501   3.504011987   3.807300176
  H   -2.461749369   2.676450779   3.459440003
  H   -0.758260938  -0.743010209   3.175390702
  H   -1.140326553   0.304706063   1.837148493
  H   -3.022027579  -0.243118689   4.195867743
  H   -3.135038969  -0.997644468   2.608361349
  H   -3.420982914   0.726040149   2.781168246
