15
charge=0 charge_a=0 charge_b=0 selection_a=1-9 selection_b=10-15 scaling=1.05 benchmark_Eint=-3.018 benchmark_unit=kcal/mol group=PS
  C   -0.040787182   1.264421749  -2.303116357
  C    0.156406959  -0.097374146  -2.663599901
  C   -0.916606159  -0.882359887  -2.349099524
  S   -2.171155019   0.031012168  -1.614629366
  C   -1.258075543   1.480696657  -1.723669461
  H    0.687892468   2.043343609  -2.463188724
  H    1.050947935  -0.474642419  -3.133771510
  H   -1.036354665  -1.939631764  -2.507499729
  H   -1.662427943   2.405268628  -1.351167334
  C    0.858374678  -0.570696568   4.888923447
  C    0.757982575  -0.478762354   3.692934754
  C    0.644259047  -0.374737509   2.338606929
  C    0.541869057  -0.282477056   1.142742630
  H    0.946830705  -0.651959276   5.942669719
  H    0.453222794  -0.201656282   0.086780945
