17
charge=0 charge_a=0 charge_b=0 selection_a=1-3 selection_b=4-17 scaling=1.10 benchmark_Eint=-2.173 benchmark_unit=kcal/mol group=PS
  S    0.685397513   1.791371661  -1.137835551
  C   -0.442217052   0.735901880  -0.987698433
  S   -1.566357362  -0.320725415  -0.827049601
  C   -1.380516791   0.076764994   3.608802364
  C    0.020565529   0.086138800   3.005774689
  C    0.508996923  -1.304238878   2.606421635
  C    1.881850723  -1.289560869   1.940892718
  H   -1.702308361   1.078788593   3.892196994
  H   -1.420970278  -0.550475955   4.500714586
  H   -2.107562433  -0.316157528   2.896467967
  H    0.726256202   0.522542649   3.717896294
  H    0.036000263   0.737698181   2.129625233
  H   -0.219001261  -1.756510822   1.928554723
  H    0.535419908  -1.942669241   3.493647576
  H    1.867590406  -0.691935255   1.028973345
  H    2.208875621  -2.294601556   1.674729512
  H    2.634774055  -0.859607429   2.603440891
