27
charge=0 charge_a=0 charge_b=0 selection_a=1-9 selection_b=10-27 scaling=0.95 benchmark_Eint=-4.310 benchmark_unit=kcal/mol group=PS
  C   -1.484457812   0.711236721  -1.535870581
  C   -1.484457509  -0.711236978  -1.535870629
  C   -0.374409845  -1.234617598  -2.128489319
  S    0.680305021   0.000000357  -2.691020025
  C   -0.374410413   1.234617903  -2.128489293
  H   -2.262877494   1.315033478  -1.098050124
  H   -2.262876921  -1.315034081  -1.098050182
  H   -0.110141352  -2.269998046  -2.248143173
  H   -0.110142356   2.269998471  -2.248143073
  C   -0.452335221   2.420995886   1.537436573
  C    0.835594375   2.420515026   0.962827766
  C    1.463949522   1.237832936   0.678393655
  C    0.841175032  -0.000000050   0.958786134
  C    1.463949218  -1.237833118   0.678393303
  C    0.835594103  -2.420515184   0.962827639
  C   -0.452335356  -2.420995809   1.537436816
  C   -1.084076504  -1.238672935   1.818140336
  C   -0.460375654   0.000000049   1.541128656
  C   -1.084076556   1.238673089   1.818139924
  H   -0.939494687   3.360924196   1.755586900
  H    1.322947024   3.360035118   0.743657172
  H    2.447097408   1.233501814   0.228100492
  H    2.447097121  -1.233502030   0.228100166
  H    1.322946663  -3.360035330   0.743656990
  H   -0.939494937  -3.360923998   1.755587281
  H   -2.072425269  -1.236524137   2.258131052
  H   -2.072425365   1.236524377   2.258130554
