26
charge=0 charge_a=0 charge_b=0 selection_a=1-9 selection_b=10-26 scaling=0.80 benchmark_Eint=1.836 benchmark_unit=kcal/mol group=PS
  C   -0.342545945   1.447819733  -1.581452544
  C   -0.648528556   0.104633826  -1.933019628
  C    0.469341262  -0.646100019  -2.154583185
  S    1.900742687   0.277199832  -1.937448913
  C    1.000603391   1.686283672  -1.545293570
  H   -1.085181335   2.198612167  -1.361866058
  H   -1.651052705  -0.285291575  -2.012771142
  H    0.530149208  -1.684645719  -2.428190413
  H    1.507420533   2.604633375  -1.306746225
  C   -1.565953383   0.124114177   1.401098088
  C   -0.376445234  -0.788313360   1.723403075
  C   -0.408341602  -1.165434510   3.208779875
  C   -0.463251411  -2.059512200   0.870224044
  C    0.930343049  -0.051507837   1.407554879
  H   -2.512025495  -0.377141406   1.611272216
  H   -1.560137100   0.410981087   0.349792538
  H   -1.530439778   1.036687766   1.997976640
  H   -1.329900704  -1.692706764   3.459991994
  H   -0.348155720  -0.277055655   3.839176291
  H    0.429787655  -1.815040129   3.465195092
  H   -1.387543518  -2.603387152   1.071328028
  H    0.371951301  -2.728782299   1.082033312
  H   -0.436757759  -1.815413883  -0.191457466
  H    1.019333625   0.857473967   2.004509685
  H    0.975901516   0.231596406   0.357210285
  H    1.795006072  -0.680319949   1.624682671
