27
charge=0 charge_a=0 charge_b=0 selection_a=1-9 selection_b=10-27 scaling=0.80 benchmark_Eint=6.224 benchmark_unit=kcal/mol group=PS
  C   -1.484457812   0.711236721  -1.535870581
  C   -1.484457509  -0.711236978  -1.535870629
  C   -0.374409845  -1.234617598  -2.128489319
  S    0.680305021   0.000000357  -2.691020025
  C   -0.374410413   1.234617903  -2.128489293
  H   -2.262877494   1.315033478  -1.098050124
  H   -2.262876921  -1.315034081  -1.098050182
  H   -0.110141352  -2.269998046  -2.248143173
  H   -0.110142356   2.269998471  -2.248143073
  C   -0.527164442   2.420995908   1.046995340
  C    0.760765154   2.420515048   0.472386533
  C    1.389120301   1.237832958   0.187952422
  C    0.766345811  -0.000000028   0.468344901
  C    1.389119997  -1.237833096   0.187952070
  C    0.760764882  -2.420515162   0.472386406
  C   -0.527164577  -2.420995787   1.046995583
  C   -1.158905725  -1.238672913   1.327699103
  C   -0.535204875   0.000000071   1.050687423
  C   -1.158905777   1.238673111   1.327698691
  H   -1.014323908   3.360924218   1.265145667
  H    1.248117803   3.360035140   0.253215939
  H    2.372268187   1.233501836  -0.262340741
  H    2.372267900  -1.233502008  -0.262341067
  H    1.248117442  -3.360035308   0.253215757
  H   -1.014324158  -3.360923976   1.265146048
  H   -2.147254490  -1.236524115   1.767689819
  H   -2.147254586   1.236524399   1.767689321
