30
charge=0 charge_a=0 charge_b=0 selection_a=1-10 selection_b=11-30 scaling=0.90 benchmark_Eint=-2.556 benchmark_unit=kcal/mol group=PS
  C   -3.110892202   1.262974279  -1.981472145
  S   -1.768109144   1.297142144  -0.751859254
  S   -0.078024256   1.132769610  -1.895896265
  C    0.118760578  -0.664951695  -2.104955826
  H   -4.036319706   1.400617288  -1.423595979
  H   -3.143382443   0.306635839  -2.496016189
  H   -2.992085406   2.072782085  -2.695148064
  H    1.042940313  -0.804867673  -2.664286656
  H   -0.708421426  -1.084048220  -2.670811559
  H    0.203296931  -1.152553248  -1.138870188
  C    0.469558535  -0.495817019   1.695585370
  C    1.709597135   0.408612284   1.857747290
  C    2.641833650   0.282302546   0.645995108
  C    1.222532805   1.860060961   1.956353122
  C    2.477196058   0.048887460   3.135559100
  C    0.731842839  -1.990220664   1.524896969
  H   -0.104515103  -0.134579052   0.840830711
  H   -0.172724361  -0.346576470   2.567500717
  H    3.049427778  -0.723764699   0.552218807
  H    2.114262505   0.528187241  -0.275432011
  H    3.483742101   0.969347435   0.740499518
  H    0.549554453   1.989692381   2.805251068
  H    0.686002153   2.152451349   1.053551267
  H    2.061503751   2.545102470   2.085909331
  H    1.831324631   0.119103450   4.012298932
  H    2.879428115  -0.962917276   3.094409523
  H    3.316286948   0.729835880   3.283726171
  H    1.325303815  -2.200271712   0.635302955
  H    1.259561515  -2.412248347   2.379511409
  H   -0.209034549  -2.531510459   1.424274101
