20
charge=0 charge_a=0 charge_b=0 selection_a=1-8 selection_b=9-20 scaling=0.80 benchmark_Eint=1.912 benchmark_unit=kcal/mol group=PS
  C   -0.373733306   0.424606211  -0.843000186
  S   -0.187551078  -1.358155076  -1.214299623
  C   -1.366509206  -1.041717828  -2.584186792
  S   -1.633322194   0.716260127  -2.143712898
  H    0.541117736   0.982517654  -1.009600313
  H   -0.742780031   0.605570290   0.159970034
  H   -2.270977577  -1.637176006  -2.506014992
  H   -0.916779414  -1.165405607  -3.565077678
  C    2.196921410   0.526373665   0.782060912
  C    1.815895522  -0.810722720   0.771524791
  C    0.712636114  -1.224674525   1.509600874
  C   -0.008667857  -0.301460793   2.257804600
  C    0.372345129   1.035476899   2.267873812
  C    1.475519359   1.449593383   1.529807015
  H    3.053731315   0.847809069   0.206771571
  H    2.372139193  -1.527211334   0.184661083
  H    0.411377175  -2.261809959   1.494009044
  H   -0.867952944  -0.623181073   2.829000759
  H   -0.189301933   1.753179184   2.849098500
  H    1.771504245   2.489140872   1.537197105
