20
charge=0 charge_a=0 charge_b=0 selection_a=1-8 selection_b=9-20 scaling=1.05 benchmark_Eint=-4.126 benchmark_unit=kcal/mol group=PS
  C   -0.373733306   0.424606211  -0.843000186
  S   -0.187551078  -1.358155076  -1.214299623
  C   -1.366509206  -1.041717828  -2.584186792
  S   -1.633322194   0.716260127  -2.143712898
  H    0.541117736   0.982517654  -1.009600313
  H   -0.742780031   0.605570290   0.159970034
  H   -2.270977577  -1.637176006  -2.506014992
  H   -0.916779414  -1.165405607  -3.565077678
  C    2.578596660   0.608691865   1.397346983
  C    2.197570772  -0.728404520   1.386810862
  C    1.094311364  -1.142356325   2.124886945
  C    0.373007393  -0.219142593   2.873090671
  C    0.754020379   1.117795099   2.883159883
  C    1.857194609   1.531911583   2.145093086
  H    3.435406565   0.930127269   0.822057642
  H    2.753814443  -1.444893134   0.799947154
  H    0.793052425  -2.179491759   2.109295115
  H   -0.486277694  -0.540862873   3.444286830
  H    0.192373317   1.835497384   3.464384571
  H    2.153179495   2.571459072   2.152483176
