20
charge=0 charge_a=0 charge_b=0 selection_a=1-8 selection_b=9-20 scaling=1.00 benchmark_Eint=-4.291 benchmark_unit=kcal/mol group=PS
  C   -0.373733306   0.424606211  -0.843000186
  S   -0.187551078  -1.358155076  -1.214299623
  C   -1.366509206  -1.041717828  -2.584186792
  S   -1.633322194   0.716260127  -2.143712898
  H    0.541117736   0.982517654  -1.009600313
  H   -0.742780031   0.605570290   0.159970034
  H   -2.270977577  -1.637176006  -2.506014992
  H   -0.916779414  -1.165405607  -3.565077678
  C    2.502261610   0.592228225   1.274289769
  C    2.121235722  -0.744868160   1.263753648
  C    1.017976314  -1.158819965   2.001829731
  C    0.296672343  -0.235606233   2.750033457
  C    0.677685329   1.101331459   2.760102669
  C    1.780859559   1.515447943   2.022035872
  H    3.359071515   0.913663629   0.699000428
  H    2.677479393  -1.461356774   0.676889940
  H    0.716717375  -2.195955399   1.986237901
  H   -0.562612744  -0.557326513   3.321229616
  H    0.116038267   1.819033744   3.341327357
  H    2.076844445   2.554995432   2.029425962
