10
charge=0 charge_a=0 charge_b=0 selection_a=1-6 selection_b=7-10 scaling=0.85 benchmark_Eint=-0.396 benchmark_unit=kcal/mol group=PS
  S    0.702863616  -1.980754680  -0.555542775
  S   -1.120820265  -1.379384569  -1.344564298
  S   -1.822745157  -0.049153375   0.088274569
  S   -0.621126063   1.617669122  -0.199083022
  S    1.199741993   1.011610060   0.589076098
  S    1.905908092  -0.313524022  -0.846090519
  C   -1.041033072   1.626731298   3.581584603
  C   -0.742243633   0.582614373   3.081592418
  H   -1.306236431   2.553035986   4.026232705
  H   -0.476947326  -0.336400669   2.622320204
