20
charge=0 charge_a=0 charge_b=0 selection_a=1-8 selection_b=9-20 scaling=0.85 benchmark_Eint=-1.543 benchmark_unit=kcal/mol group=PS
  C   -0.373733306   0.424606211  -0.843000186
  S   -0.187551078  -1.358155076  -1.214299623
  C   -1.366509206  -1.041717828  -2.584186792
  S   -1.633322194   0.716260127  -2.143712898
  H    0.541117736   0.982517654  -1.009600313
  H   -0.742780031   0.605570290   0.159970034
  H   -2.270977577  -1.637176006  -2.506014992
  H   -0.916779414  -1.165405607  -3.565077678
  C    2.273256460   0.542837305   0.905118126
  C    1.892230572  -0.794259080   0.894582005
  C    0.788971164  -1.208210885   1.632658088
  C    0.067667193  -0.284997153   2.380861814
  C    0.448680179   1.051940539   2.390931026
  C    1.551854409   1.466057023   1.652864229
  H    3.130066365   0.864272709   0.329828785
  H    2.448474243  -1.510747694   0.307718297
  H    0.487712225  -2.245346319   1.617066258
  H   -0.791617894  -0.606717433   2.952057973
  H   -0.112966883   1.769642824   2.972155714
  H    1.847839295   2.505604512   1.660254319
