18
charge=0 charge_a=0 charge_b=0 selection_a=1-10 selection_b=11-18 scaling=1.25 benchmark_Eint=-1.336 benchmark_unit=kcal/mol group=PS
  C    0.986761226   1.162092023  -3.178903163
  S    0.072215323   0.943004115  -1.618566278
  S   -0.598884237  -0.984212325  -1.751132586
  C   -2.212974811  -0.799994550  -2.573671955
  H    1.417661259   2.161954795  -3.139016543
  H    0.322818494   1.093266580  -4.036167124
  H    1.782527421   0.427258790  -3.258316378
  H   -2.645804434  -1.798672988  -2.621255755
  H   -2.097848334  -0.411802554  -3.581909277
  H   -2.860243452  -0.150923608  -1.991106978
  C    1.374225917  -0.394997237   2.272187454
  C    0.557088028  -1.443999539   2.212783796
  C   -0.676831511  -0.493644014   2.428268080
  C    0.141748975   0.554534805   2.489569371
  H    2.438207798  -0.249082877   2.184006048
  H    0.681263364  -2.503079643   2.059362416
  H   -1.743251872  -0.635630653   2.487573173
  H    0.014311309   1.616994634   2.615944348
