17
charge=0 charge_a=0 charge_b=0 selection_a=1-3 selection_b=4-17 scaling=0.80 benchmark_Eint=1.212 benchmark_unit=kcal/mol group=PS
  S    0.685397513   1.791371661  -1.137835551
  C   -0.442217052   0.735901880  -0.987698433
  S   -1.566357362  -0.320725415  -0.827049601
  C   -1.529070428   0.362539219   2.805975028
  C   -0.127988108   0.371913025   2.202947353
  C    0.360443286  -1.018464653   1.803594299
  C    1.733297086  -1.003786644   1.138065382
  H   -1.850861998   1.364562818   3.089369658
  H   -1.569523915  -0.264701730   3.697887250
  H   -2.256116070  -0.030383303   2.093640631
  H    0.577702565   0.808316874   2.915068958
  H   -0.112553374   1.023472406   1.326797897
  H   -0.367554898  -1.470736597   1.125727387
  H    0.386866271  -1.656895016   2.690820240
  H    1.719036769  -0.406161030   0.226146009
  H    2.060321984  -2.008827331   0.871902176
  H    2.486220418  -0.573833204   1.800613555
