18
charge=0 charge_a=0 charge_b=0 selection_a=1-3 selection_b=4-18 scaling=0.80 benchmark_Eint=0.952 benchmark_unit=kcal/mol group=PS
  S   -0.451159364  -0.771025649  -2.159082119
  C   -0.953051153   0.414365971  -1.293452422
  S   -1.443648122   1.597501037  -0.417650340
  C    2.004873900   0.635166172   0.020213821
  C    1.386756606   0.441798249   1.409115187
  C    2.376242641  -0.789224119  -0.441904483
  C    0.586917131  -0.856614938   1.261647553
  C    1.471093217  -1.753845044   0.372868083
  H    1.260164783   1.063964551  -0.650795331
  H    2.859315043   1.310534766   0.023901743
  H    2.175586467   0.310992238   2.153960098
  H    0.775182383   1.286326327   1.724725232
  H    2.237661832  -0.908711382  -1.514970480
  H    3.426429667  -0.993524555  -0.235709332
  H    0.345317363  -1.320664731   2.216958246
  H   -0.357417976  -0.645211040   0.759285374
  H    0.872391230  -2.395671636  -0.271073468
  H    2.082661225  -2.410443150   0.991253558
