18
charge=0 charge_a=0 charge_b=0 selection_a=1-3 selection_b=4-18 scaling=1.25 benchmark_Eint=-1.758 benchmark_unit=kcal/mol group=PS
  S   -0.451159364  -0.771025649  -2.159082119
  C   -0.953051153   0.414365971  -1.293452422
  S   -1.443648122   1.597501037  -0.417650340
  C    3.010836711   0.283505361   0.745678367
  C    2.392719417   0.090137438   2.134579733
  C    3.382205452  -1.140884930   0.283560063
  C    1.592879942  -1.208275749   1.987112099
  C    2.477056028  -2.105505855   1.098332629
  H    2.266127594   0.712303740   0.074669215
  H    3.865277854   0.958873955   0.749366289
  H    3.181549278  -0.040668573   2.879424644
  H    1.781145194   0.934665516   2.450189778
  H    3.243624643  -1.260372193  -0.789505934
  H    4.432392478  -1.345185366   0.489755214
  H    1.351280174  -1.672325542   2.942422792
  H    0.648544835  -0.996871851   1.484749920
  H    1.878354041  -2.747332447   0.454391078
  H    3.088624036  -2.762103961   1.716718104
