26
charge=0 charge_a=0 charge_b=0 selection_a=1-9 selection_b=10-26 scaling=0.95 benchmark_Eint=-2.619 benchmark_unit=kcal/mol group=PS
  C   -0.342545945   1.447819733  -1.581452544
  C   -0.648528556   0.104633826  -1.933019628
  C    0.469341262  -0.646100019  -2.154583185
  S    1.900742687   0.277199832  -1.937448913
  C    1.000603391   1.686283672  -1.545293570
  H   -1.085181335   2.198612167  -1.361866058
  H   -1.651052705  -0.285291575  -2.012771142
  H    0.530149208  -1.684645719  -2.428190413
  H    1.507420533   2.604633375  -1.306746225
  C   -1.694478562  -0.019550414   1.796934208
  C   -0.504970413  -0.931977951   2.119239195
  C   -0.536866781  -1.309099101   3.604615995
  C   -0.591776590  -2.203176791   1.266060164
  C    0.801817870  -0.195172428   1.803390999
  H   -2.640550674  -0.520805997   2.007108336
  H   -1.688662279   0.267316496   0.745628658
  H   -1.658964957   0.893023175   2.393812760
  H   -1.458425883  -1.836371355   3.855828114
  H   -0.476680899  -0.420720246   4.235012411
  H    0.301262476  -1.958704720   3.861031212
  H   -1.516068697  -2.747051743   1.467164148
  H    0.243426122  -2.872446890   1.477869432
  H   -0.565282938  -1.959078474   0.204378654
  H    0.890808446   0.713809376   2.400345805
  H    0.847376337   0.087931815   0.753046405
  H    1.666480893  -0.823984540   2.020518791
