10
charge=0 charge_a=0 charge_b=0 selection_a=1-3 selection_b=4-10 scaling=0.90 benchmark_Eint=-1.423 benchmark_unit=kcal/mol group=PS
  S    0.019695183   1.320030593  -1.831301774
  C   -0.655161594  -0.068913819  -1.683696246
  S   -1.325501519  -1.459060841  -1.526674898
  C   -0.527889115   0.213417138   1.892787229
  C    0.427628789  -0.246739918   1.335891635
  C    1.580549910  -0.804235593   0.649883445
  H   -1.373980705   0.621203454   2.384920067
  H    2.079010953  -0.043453169   0.049470897
  H    1.279254560  -1.612449284  -0.016577287
  H    2.303751654  -1.203136847   1.361122791
