27
charge=0 charge_a=0 charge_b=0 selection_a=1-9 selection_b=10-27 scaling=1.10 benchmark_Eint=-4.055 benchmark_unit=kcal/mol group=PS
  C   -1.484457812   0.711236721  -1.535870581
  C   -1.484457509  -0.711236978  -1.535870629
  C   -0.374409845  -1.234617598  -2.128489319
  S    0.680305021   0.000000357  -2.691020025
  C   -0.374410413   1.234617903  -2.128489293
  H   -2.262877494   1.315033478  -1.098050124
  H   -2.262876921  -1.315034081  -1.098050182
  H   -0.110141352  -2.269998046  -2.248143173
  H   -0.110142356   2.269998471  -2.248143073
  C   -0.377506001   2.420995865   2.027877806
  C    0.910423595   2.420515005   1.453268999
  C    1.538778742   1.237832915   1.168834888
  C    0.916004252  -0.000000071   1.449227367
  C    1.538778438  -1.237833139   1.168834536
  C    0.910423323  -2.420515205   1.453268872
  C   -0.377506136  -2.420995830   2.027878049
  C   -1.009247284  -1.238672956   2.308581569
  C   -0.385546434   0.000000028   2.031569889
  C   -1.009247336   1.238673068   2.308581157
  H   -0.864665467   3.360924175   2.246028133
  H    1.397776244   3.360035097   1.234098405
  H    2.521926628   1.233501793   0.718541725
  H    2.521926341  -1.233502051   0.718541399
  H    1.397775883  -3.360035351   1.234098223
  H   -0.864665717  -3.360924019   2.246028514
  H   -1.997596049  -1.236524158   2.748572285
  H   -1.997596145   1.236524356   2.748571787
