10
charge=0 charge_a=0 charge_b=0 selection_a=1-6 selection_b=7-10 scaling=1.05 benchmark_Eint=-1.984 benchmark_unit=kcal/mol group=PS
  S    0.702863616  -1.980754680  -0.555542775
  S   -1.120820265  -1.379384569  -1.344564298
  S   -1.822745157  -0.049153375   0.088274569
  S   -0.621126063   1.617669122  -0.199083022
  S    1.199741993   1.011610060   0.589076098
  S    1.905908092  -0.313524022  -0.846090519
  C   -1.190151457   1.832622830   4.174846884
  C   -0.891362018   0.788505905   3.674854699
  H   -1.455354816   2.758927518   4.619494986
  H   -0.626065711  -0.130509137   3.215582485
