24
charge=0 charge_a=0 charge_b=0 selection_a=1-12 selection_b=13-24 scaling=0.90 benchmark_Eint=-4.697 benchmark_unit=kcal/mol group=PS
  S    1.063591690  -1.185973345   0.153336523
  C   -0.400457060  -0.507258957  -0.670258210
  S   -0.281528080   1.220015768  -1.204177110
  C    1.003808573   1.023988054  -2.469602926
  S    2.641593421   0.514019169  -1.875557919
  C    2.212000308  -1.135192086  -1.250396785
  H   -1.210171765  -0.554409714   0.048892164
  H   -0.657393212  -1.132754190  -1.524467917
  H    1.136888325   1.998946053  -2.929949417
  H    0.662037264   0.327132954  -3.234357546
  H    3.140801296  -1.582047589  -0.907183906
  H    1.820336497  -1.741819365  -2.066410920
  C   -3.141458007   0.352370795   1.352567062
  C   -2.240487706   1.407327680   1.446949607
  C   -1.016777160   1.222112411   2.079479021
  C   -0.694223150  -0.016778814   2.620230924
  C   -1.594091953  -1.072359106   2.526125306
  C   -2.817962347  -0.888217409   1.891670978
  H   -4.090822581   0.495334775   0.856125841
  H   -2.485932639   2.367965276   1.017644878
  H   -0.308231904   2.035311006   2.133252240
  H    0.262846148  -0.163249042   3.098716893
  H   -1.338989887  -2.037839595   2.939192817
  H   -3.516353839  -1.709651254   1.815361546
