10
charge=0 charge_a=0 charge_b=0 selection_a=1-6 selection_b=7-10 scaling=0.90 benchmark_Eint=-1.367 benchmark_unit=kcal/mol group=PS
  S    0.702863616  -1.980754680  -0.555542775
  S   -1.120820265  -1.379384569  -1.344564298
  S   -1.822745157  -0.049153375   0.088274569
  S   -0.621126063   1.617669122  -0.199083022
  S    1.199741993   1.011610060   0.589076098
  S    1.905908092  -0.313524022  -0.846090519
  C   -1.078312668   1.678204181   3.729900173
  C   -0.779523229   0.634087256   3.229907988
  H   -1.343516027   2.604508869   4.174548275
  H   -0.514226922  -0.284927786   2.770635774
