17
charge=0 charge_a=0 charge_b=0 selection_a=1-3 selection_b=4-17 scaling=2.00 benchmark_Eint=-0.158 benchmark_unit=kcal/mol group=PS
  S    0.685397513   1.791371661  -1.137835551
  C   -0.442217052   0.735901880  -0.987698433
  S   -1.566357362  -0.320725415  -0.827049601
  C   -0.934855881  -0.780557682   6.017284371
  C    0.466226439  -0.771183876   5.414256696
  C    0.954657833  -2.161561554   5.014903642
  C    2.327511633  -2.146883545   4.349374725
  H   -1.256647451   0.221465917   6.300679001
  H   -0.975309368  -1.407798631   6.909196593
  H   -1.661901523  -1.173480204   5.304949974
  H    1.171917112  -0.334780027   6.126378301
  H    0.481661173  -0.119624495   4.538107240
  H    0.226659649  -2.613833498   4.337036730
  H    0.981080818  -2.799991917   5.902129583
  H    2.313251316  -1.549257931   3.437455352
  H    2.654536531  -3.151924232   4.083211519
  H    3.080434965  -1.716930105   5.011922898
