27
charge=0 charge_a=0 charge_b=0 selection_a=1-9 selection_b=10-27 scaling=1.10 benchmark_Eint=-2.635 benchmark_unit=kcal/mol group=PS
  C   -0.007612903   2.506427674  -0.787288073
  C   -0.534964552   1.444380048  -1.571754692
  C    0.438411818   0.630577170  -2.073190713
  S    2.003012906   1.150638336  -1.593543525
  C    1.354531738   2.474988504  -0.711994786
  H   -0.612589074   3.254054153  -0.298979285
  H   -1.587535074   1.291029831  -1.750458885
  H    0.323341621  -0.243462227  -2.689437104
  H    2.008156047   3.149567507  -0.187666774
  C    0.132835814  -2.052659561   0.916285839
  C    0.085455218  -0.742990155   1.704531955
  C   -1.355345697  -0.323961981   2.000179854
  C   -2.127458487  -1.434647188   2.715288286
  C   -2.077442120  -2.745397277   1.926761635
  C   -0.635796531  -3.165727888   1.631097920
  H    1.167957080  -2.353286238   0.745462003
  H   -0.309283779  -1.886335047  -0.069921981
  H    0.601016914   0.044975965   1.157936645
  H    0.621238267  -0.874757517   2.650011220
  H   -1.855347680  -0.087783178   1.056602859
  H   -1.368165770   0.591144310   2.594949872
  H   -3.163255546  -1.132046140   2.879736532
  H   -1.688994914  -1.596340285   3.704934110
  H   -2.611966849  -2.613652465   0.980753933
  H   -2.598409331  -3.534983441   2.471203246
  H   -0.623736356  -4.079588602   1.034279183
  H   -0.132002680  -3.402152291   2.573486266
