27
charge=0 charge_a=0 charge_b=0 selection_a=1-9 selection_b=10-27 scaling=1.50 benchmark_Eint=-0.928 benchmark_unit=kcal/mol group=PS
  C   -1.484457812   0.711236721  -1.535870581
  C   -1.484457509  -0.711236978  -1.535870629
  C   -0.374409845  -1.234617598  -2.128489319
  S    0.680305021   0.000000357  -2.691020025
  C   -0.374410413   1.234617903  -2.128489293
  H   -2.262877494   1.315033478  -1.098050124
  H   -2.262876921  -1.315034081  -1.098050182
  H   -0.110141352  -2.269998046  -2.248143173
  H   -0.110142356   2.269998471  -2.248143073
  C   -0.177961414   2.420995807   3.335721095
  C    1.109968182   2.420514947   2.761112288
  C    1.738323329   1.237832857   2.476678177
  C    1.115548839  -0.000000129   2.757070656
  C    1.738323025  -1.237833197   2.476677825
  C    1.109967910  -2.420515263   2.761112161
  C   -0.177961549  -2.420995888   3.335721338
  C   -0.809702697  -1.238673014   3.616424858
  C   -0.186001847  -0.000000030   3.339413178
  C   -0.809702749   1.238673010   3.616424446
  H   -0.665120880   3.360924117   3.553871422
  H    1.597320831   3.360035039   2.541941694
  H    2.721471215   1.233501735   2.026385014
  H    2.721470928  -1.233502109   2.026384688
  H    1.597320470  -3.360035409   2.541941512
  H   -0.665121130  -3.360924077   3.553871803
  H   -1.798051462  -1.236524216   4.056415574
  H   -1.798051558   1.236524298   4.056415076
