17
charge=0 charge_a=0 charge_b=0 selection_a=1-3 selection_b=4-17 scaling=1.00 benchmark_Eint=-2.425 benchmark_unit=kcal/mol group=PS
  S    0.685397513   1.791371661  -1.137835551
  C   -0.442217052   0.735901880  -0.987698433
  S   -1.566357362  -0.320725415  -0.827049601
  C   -1.430034670   0.172023069   3.341193252
  C   -0.028952350   0.181396875   2.738165577
  C    0.459479044  -1.208980803   2.338812523
  C    1.832332844  -1.194302794   1.673283606
  H   -1.751826240   1.174046668   3.624587882
  H   -1.470488157  -0.455217880   4.233105474
  H   -2.157080312  -0.220899453   2.628858855
  H    0.676738323   0.617800724   3.450287182
  H   -0.013517616   0.832956256   1.862016121
  H   -0.268519140  -1.661252747   1.660945611
  H    0.485902029  -1.847411166   3.226038464
  H    1.818072527  -0.596677180   0.761364233
  H    2.159357742  -2.199343481   1.407120400
  H    2.585256176  -0.764349354   2.335831779
