15
charge=0 charge_a=0 charge_b=0 selection_a=1-9 selection_b=10-15 scaling=0.80 benchmark_Eint=0.084 benchmark_unit=kcal/mol group=PS
  C   -0.040787182   1.264421749  -2.303116357
  C    0.156406959  -0.097374146  -2.663599901
  C   -0.916606159  -0.882359887  -2.349099524
  S   -2.171155019   0.031012168  -1.614629366
  C   -1.258075543   1.480696657  -1.723669461
  H    0.687892468   2.043343609  -2.463188724
  H    1.050947935  -0.474642419  -3.133771510
  H   -1.036354665  -1.939631764  -2.507499729
  H   -1.662427943   2.405268628  -1.351167334
  C    0.634445296  -0.483386189   4.274005098
  C    0.534053193  -0.391451975   3.078016405
  C    0.420329665  -0.287427130   1.723688580
  C    0.317939675  -0.195166677   0.527824281
  H    0.722901323  -0.564648897   5.327751370
  H    0.229293412  -0.114345903  -0.528137404
