20
charge=0 charge_a=0 charge_b=0 selection_a=1-11 selection_b=12-20 scaling=0.80 benchmark_Eint=5.157 benchmark_unit=kcal/mol group=PS
  C   -2.170349917   0.740364053  -0.220279637
  C   -1.176600895   1.142023833  -1.107166771
  C   -0.441634133   0.253170349  -1.874808091
  P   -0.628354450  -1.470778685  -1.866193830
  C   -1.899843252  -1.638446802  -0.701891672
  C   -2.513467358  -0.593361787  -0.029385815
  H   -2.694608038   1.497782662   0.345599254
  H   -0.966006676   2.200885241  -1.189492404
  H    0.320214443   0.655805250  -2.530482096
  H   -2.229869025  -2.646509861  -0.484335224
  H   -3.296717848  -0.822029002   0.682868470
  N    2.022100187   0.408734681  -0.303083539
  C    1.549690950   1.557489450   0.172250250
  N    0.556004633   1.682668338   1.047043800
  C    0.033203159   0.528135174   1.454837754
  N    0.425547608  -0.679117082   1.061719507
  C    1.416669076  -0.675830515   0.174547358
  H    2.012867117   2.469383093  -0.185313355
  H   -0.780207116   0.576843916   2.167880364
  H    1.759015437  -1.636331635  -0.189498112
