8
charge=0 charge_a=0 charge_b=0 selection_a=1-4 selection_b=5-8 scaling=0.85 benchmark_Eint=-0.564 benchmark_unit=kcal/mol group=PS
  P    1.485383606  -0.169844993  -0.456226625
  P    0.192392071   1.385897326  -0.298759724
  H    2.218937583   0.163291934   0.716082259
  H   -0.544206506   1.026441923  -1.462081365
  N   -2.219445665  -0.245269738   0.538773787
  N   -1.540878268  -1.118226583   0.324648756
  N   -0.900215930  -2.147363761   0.125152190
  H    0.046447583  -1.913637147  -0.186584784
