13
charge=0 charge_a=0 charge_b=0 selection_a=1-4 selection_b=5-13 scaling=0.95 benchmark_Eint=-2.706 benchmark_unit=kcal/mol group=PS
  P   -0.478454737   0.323244234  -2.071659648
  P   -1.125458217  -1.272082788  -1.003358097
  H   -1.379875418   1.238823817  -1.457742459
  H   -0.215060920  -2.181569428  -1.612491690
  N    1.369043621   1.552471353   0.406629049
  C    0.223533615   1.736374441   1.059810470
  N   -0.381778871   0.834706171   1.825856709
  C    0.252148137  -0.332279585   1.910038034
  N    1.408146481  -0.628232475   1.319458439
  C    1.917537810   0.352567122   0.580973283
  H   -0.256673724   2.701575208   0.954649524
  H   -0.208791949  -1.104444467   2.513125994
  H    2.853700248   0.157430204   0.072592627
