6
charge=0 charge_a=0 charge_b=0 selection_a=1-4 selection_b=5-6 scaling=1.25 benchmark_Eint=-0.491 benchmark_unit=kcal/mol group=PS
  P    0.421209263  -0.193672469  -1.668441188
  P   -0.999768828  -0.818640500  -0.366042705
  H    1.104352972   0.605266301  -0.708392627
  H   -1.681433405  -1.617201711  -1.328027267
  N    1.223408061   1.672448229   2.608415595
  N    0.453628928   1.251071964   3.255063412
