11
charge=0 charge_a=0 charge_b=0 selection_a=1-4 selection_b=5-11 scaling=2.00 benchmark_Eint=-0.109 benchmark_unit=kcal/mol group=PS
  P    0.805627587   0.688684945   1.571375418
  H    2.024147287   1.180301722   1.042994973
  H    0.173880506   1.956069637   1.544002661
  H    1.224544309   0.818482449   2.918297221
  C   -0.995656934   0.055525472  -4.747716029
  N   -1.227002568  -1.354640430  -4.442242368
  H   -1.628983361   0.761121729  -4.195549767
  H   -1.154654189   0.226533833  -5.811874654
  H    0.044124264   0.303373177  -4.535208242
  H   -2.178710525  -1.617711801  -4.659783497
  H   -1.089795025  -1.529233215  -3.455007451
