6
charge=0 charge_a=0 charge_b=0 selection_a=1-4 selection_b=5-6 scaling=0.80 benchmark_Eint=1.419 benchmark_unit=kcal/mol group=PS
  P    0.421209263  -0.193672469  -1.668441188
  P   -0.999768828  -0.818640500  -0.366042705
  H    1.104352972   0.605266301  -0.708392627
  H   -1.681433405  -1.617201711  -1.328027267
  N    0.909921787   1.125430440   1.510713414
  N    0.140142654   0.704054175   2.157361231
