6
charge=0 charge_a=0 charge_b=0 selection_a=1-4 selection_b=5-6 scaling=0.95 benchmark_Eint=-0.740 benchmark_unit=kcal/mol group=PS
  P    0.296364884  -1.277204626  -0.173114787
  P    0.973573769   0.814490400  -0.060870435
  P   -1.150033136   0.363296699  -0.422393051
  P    0.342320535  -0.035614892  -1.992168248
  N   -0.422138711   0.494598274   3.109565322
  N   -0.522869360  -0.590798184   3.113951535
