6
charge=0 charge_a=0 charge_b=0 selection_a=1-4 selection_b=5-6 scaling=1.50 benchmark_Eint=-0.190 benchmark_unit=kcal/mol group=PS
  P    0.296364884  -1.277204626  -0.173114787
  P    0.973573769   0.814490400  -0.060870435
  P   -1.150033136   0.363296699  -0.422393051
  P    0.342320535  -0.035614892  -1.992168248
  N   -0.729858676   0.487093479   5.084366825
  N   -0.830589325  -0.598302979   5.088753038
