19
charge=0 charge_a=0 charge_b=0 selection_a=1-11 selection_b=12-19 scaling=0.80 benchmark_Eint=-1.308 benchmark_unit=kcal/mol group=PS
  C   -0.239447959  -2.289721625  -0.392724761
  C   -1.408730820  -1.626347679  -0.748818726
  C   -1.452444310  -0.624257931  -1.705855573
  P   -0.094641992  -0.035130912  -2.609822110
  C    1.165334936  -1.027572960  -1.944736861
  C    0.993076120  -2.001656157  -0.970290565
  H   -0.286765427  -3.049800329   0.373401730
  H   -2.325251568  -1.902725420  -0.243297382
  H   -2.409402929  -0.161268809  -1.912050025
  H    2.163905588  -0.869784169  -2.333207883
  H    1.857608774  -2.559173945  -0.632716901
  N    0.437688574   0.480316305   0.590741802
  C   -0.136493440   1.693771314   0.619160337
  N   -0.415060951   2.027341534   1.864138507
  C    0.019408750   0.949560695   2.571614986
  N    0.543157574  -0.018016537   1.841704462
  H    0.740595335  -0.062900772  -0.201717769
  H   -0.327909946   2.278144940  -0.263653571
  H   -0.051924547   0.877406501   3.642822885
