20
charge=0 charge_a=0 charge_b=0 selection_a=1-11 selection_b=12-20 scaling=1.05 benchmark_Eint=-3.887 benchmark_unit=kcal/mol group=PS
  C   -2.170349917   0.740364053  -0.220279637
  C   -1.176600895   1.142023833  -1.107166771
  C   -0.441634133   0.253170349  -1.874808091
  P   -0.628354450  -1.470778685  -1.866193830
  C   -1.899843252  -1.638446802  -0.701891672
  C   -2.513467358  -0.593361787  -0.029385815
  H   -2.694608038   1.497782662   0.345599254
  H   -0.966006676   2.200885241  -1.189492404
  H    0.320214443   0.655805250  -2.530482096
  H   -2.229869025  -2.646509861  -0.484335224
  H   -3.296717848  -0.822029002   0.682868470
  N    2.655499303   0.667195792   0.168363577
  C    2.183090066   1.815950561   0.643697366
  N    1.189403749   1.941129449   1.518490916
  C    0.666602275   0.786596285   1.926284870
  N    1.058946724  -0.420655971   1.533166623
  C    2.050068192  -0.417369404   0.645994474
  H    2.646266233   2.727844204   0.286133761
  H   -0.146808000   0.835305027   2.639327480
  H    2.392414553  -1.377870524   0.281949004
