13
charge=0 charge_a=0 charge_b=0 selection_a=1-4 selection_b=5-13 scaling=1.50 benchmark_Eint=-0.724 benchmark_unit=kcal/mol group=PS
  P   -0.478454737   0.323244234  -2.071659648
  P   -1.125458217  -1.272082788  -1.003358097
  H   -1.379875418   1.238823817  -1.457742459
  H   -0.215060920  -2.181569428  -1.612491690
  N    2.210196321   2.109908870   1.837284272
  C    1.064686315   2.293811958   2.490465693
  N    0.459373829   1.392143688   3.256511932
  C    1.093300837   0.225157932   3.340693257
  N    2.249299181  -0.070794958   2.750113662
  C    2.758690510   0.910004639   2.011628506
  H    0.584478976   3.259012725   2.385304747
  H    0.632360751  -0.547006950   3.943781217
  H    3.694852948   0.714867721   1.503247850
