19
charge=0 charge_a=0 charge_b=0 selection_a=1-11 selection_b=12-19 scaling=0.85 benchmark_Eint=-3.564 benchmark_unit=kcal/mol group=PS
  C   -0.239447959  -2.289721625  -0.392724761
  C   -1.408730820  -1.626347679  -0.748818726
  C   -1.452444310  -0.624257931  -1.705855573
  P   -0.094641992  -0.035130912  -2.609822110
  C    1.165334936  -1.027572960  -1.944736861
  C    0.993076120  -2.001656157  -0.970290565
  H   -0.286765427  -3.049800329   0.373401730
  H   -2.325251568  -1.902725420  -0.243297382
  H   -2.409402929  -0.161268809  -1.912050025
  H    2.163905588  -0.869784169  -2.333207883
  H    1.857608774  -2.559173945  -0.632716901
  N    0.446467685   0.550190798   0.695510749
  C   -0.127714329   1.763645807   0.723929284
  N   -0.406281840   2.097216027   1.968907454
  C    0.028187861   1.019435188   2.676383933
  N    0.551936685   0.051857956   1.946473409
  H    0.749374446   0.006973721  -0.096948822
  H   -0.319130835   2.348019433  -0.158884624
  H   -0.043145436   0.947280994   3.747591832
