20
charge=0 charge_a=0 charge_b=0 selection_a=1-11 selection_b=12-20 scaling=1.10 benchmark_Eint=-3.519 benchmark_unit=kcal/mol group=PS
  C   -2.170349917   0.740364053  -0.220279637
  C   -1.176600895   1.142023833  -1.107166771
  C   -0.441634133   0.253170349  -1.874808091
  P   -0.628354450  -1.470778685  -1.866193830
  C   -1.899843252  -1.638446802  -0.701891672
  C   -2.513467358  -0.593361787  -0.029385815
  H   -2.694608038   1.497782662   0.345599254
  H   -0.966006676   2.200885241  -1.189492404
  H    0.320214443   0.655805250  -2.530482096
  H   -2.229869025  -2.646509861  -0.484335224
  H   -3.296717848  -0.822029002   0.682868470
  N    2.782179126   0.718888015   0.262653000
  C    2.309769889   1.867642784   0.737986789
  N    1.316083572   1.992821672   1.612780339
  C    0.793282098   0.838288508   2.020574293
  N    1.185626547  -0.368963748   1.627456046
  C    2.176748015  -0.365677181   0.740283897
  H    2.772946056   2.779536427   0.380423184
  H   -0.020128177   0.886997250   2.733616903
  H    2.519094376  -1.326178301   0.376238427
