20
charge=0 charge_a=0 charge_b=0 selection_a=1-11 selection_b=12-20 scaling=1.25 benchmark_Eint=-2.215 benchmark_unit=kcal/mol group=PS
  C   -2.170349917   0.740364053  -0.220279637
  C   -1.176600895   1.142023833  -1.107166771
  C   -0.441634133   0.253170349  -1.874808091
  P   -0.628354450  -1.470778685  -1.866193830
  C   -1.899843252  -1.638446802  -0.701891672
  C   -2.513467358  -0.593361787  -0.029385815
  H   -2.694608038   1.497782662   0.345599254
  H   -0.966006676   2.200885241  -1.189492404
  H    0.320214443   0.655805250  -2.530482096
  H   -2.229869025  -2.646509861  -0.484335224
  H   -3.296717848  -0.822029002   0.682868470
  N    3.162218596   0.873964682   0.545521270
  C    2.689809359   2.022719451   1.020855059
  N    1.696123042   2.147898339   1.895648609
  C    1.173321568   0.993365175   2.303442563
  N    1.565666017  -0.213887081   1.910324316
  C    2.556787485  -0.210600514   1.023152167
  H    3.152985526   2.934613094   0.663291454
  H    0.359911293   1.042073917   3.016485173
  H    2.899133846  -1.171101634   0.659106697
