15
charge=0 charge_a=0 charge_b=0 selection_a=1-11 selection_b=12-15 scaling=1.10 benchmark_Eint=-2.021 benchmark_unit=kcal/mol group=PS
  C    0.790169996   1.355916572   0.360373565
  C   -0.256789212   1.643033763  -0.509104572
  C   -1.370659918   0.829766574  -0.649148603
  P   -1.647126245  -0.650651564   0.209577927
  C   -0.209041202  -0.720026459   1.175106642
  C    0.808383481   0.222024493   1.166520382
  H    1.625418596   2.040296484   0.408982553
  H   -0.190113659   2.542195337  -1.108459609
  H   -2.135203157   1.133349046  -1.353486342
  H   -0.106802630  -1.572850224   1.834624894
  H    1.661990215   0.071924953   1.816184191
  N    1.376300931  -0.975857331  -2.794320702
  H    1.871167277  -1.856318114  -2.861261212
  H    1.508698614  -0.628082501  -1.852726294
  H    0.389718509  -1.182204803  -2.885328276
