13
charge=0 charge_a=0 charge_b=0 selection_a=1-4 selection_b=5-13 scaling=1.25 benchmark_Eint=-1.763 benchmark_unit=kcal/mol group=PS
  P   -0.478454737   0.323244234  -2.071659648
  P   -1.125458217  -1.272082788  -1.003358097
  H   -1.379875418   1.238823817  -1.457742459
  H   -0.215060920  -2.181569428  -1.612491690
  N    1.827854185   1.856528181   1.186986444
  C    0.682344179   2.040431269   1.840167865
  N    0.077031693   1.138762999   2.606214104
  C    0.710958701  -0.028222757   2.690395429
  N    1.866957045  -0.324175647   2.099815834
  C    2.376348374   0.656623950   1.361330678
  H    0.202136840   3.005632036   1.735006919
  H    0.250018615  -0.800387639   3.293483389
  H    3.312510812   0.461487032   0.852950022
