6
charge=0 charge_a=0 charge_b=0 selection_a=1-4 selection_b=5-6 scaling=1.25 benchmark_Eint=-0.536 benchmark_unit=kcal/mol group=PS
  P    0.296364884  -1.277204626  -0.173114787
  P    0.973573769   0.814490400  -0.060870435
  P   -1.150033136   0.363296699  -0.422393051
  P    0.342320535  -0.035614892  -1.992168248
  N   -0.589985964   0.490504750   4.186729778
  N   -0.690716613  -0.594891708   4.191115991
