8
charge=0 charge_a=0 charge_b=0 selection_a=1-4 selection_b=5-8 scaling=1.10 benchmark_Eint=-2.701 benchmark_unit=kcal/mol group=PS
  P    1.485383606  -0.169844993  -0.456226625
  P    0.192392071   1.385897326  -0.298759724
  H    2.218937583   0.163291934   0.716082259
  H   -0.544206506   1.026441923  -1.462081365
  N   -2.735462172  -0.638670943   0.691020293
  N   -2.056894775  -1.511627788   0.476895262
  N   -1.416232437  -2.540764966   0.277398696
  H   -0.469568924  -2.307038352  -0.034338278
