19
charge=0 charge_a=0 charge_b=0 selection_a=1-11 selection_b=12-19 scaling=0.90 benchmark_Eint=-4.803 benchmark_unit=kcal/mol group=PS
  C   -0.239447959  -2.289721625  -0.392724761
  C   -1.408730820  -1.626347679  -0.748818726
  C   -1.452444310  -0.624257931  -1.705855573
  P   -0.094641992  -0.035130912  -2.609822110
  C    1.165334936  -1.027572960  -1.944736861
  C    0.993076120  -2.001656157  -0.970290565
  H   -0.286765427  -3.049800329   0.373401730
  H   -2.325251568  -1.902725420  -0.243297382
  H   -2.409402929  -0.161268809  -1.912050025
  H    2.163905588  -0.869784169  -2.333207883
  H    1.857608774  -2.559173945  -0.632716901
  N    0.455246796   0.620065290   0.800279695
  C   -0.118935218   1.833520299   0.828698230
  N   -0.397502729   2.167090519   2.073676400
  C    0.036966972   1.089309680   2.781152879
  N    0.560715796   0.121732448   2.051242355
  H    0.758153557   0.076848213   0.007820124
  H   -0.310351724   2.417893925  -0.054115678
  H   -0.034366325   1.017155486   3.852360778
