19
charge=0 charge_a=0 charge_b=0 selection_a=1-11 selection_b=12-19 scaling=1.05 benchmark_Eint=-5.344 benchmark_unit=kcal/mol group=PS
  C   -0.239447959  -2.289721625  -0.392724761
  C   -1.408730820  -1.626347679  -0.748818726
  C   -1.452444310  -0.624257931  -1.705855573
  P   -0.094641992  -0.035130912  -2.609822110
  C    1.165334936  -1.027572960  -1.944736861
  C    0.993076120  -2.001656157  -0.970290565
  H   -0.286765427  -3.049800329   0.373401730
  H   -2.325251568  -1.902725420  -0.243297382
  H   -2.409402929  -0.161268809  -1.912050025
  H    2.163905588  -0.869784169  -2.333207883
  H    1.857608774  -2.559173945  -0.632716901
  N    0.481584128   0.829688767   1.114586534
  C   -0.092597886   2.043143776   1.143005069
  N   -0.371165397   2.376713996   2.387983239
  C    0.063304304   1.298933157   3.095459718
  N    0.587053128   0.331355925   2.365549194
  H    0.784490889   0.286471690   0.322126963
  H   -0.284014392   2.627517402   0.260191161
  H   -0.008028993   1.226778963   4.166667617
