13
charge=0 charge_a=0 charge_b=0 selection_a=1-4 selection_b=5-13 scaling=0.90 benchmark_Eint=-1.856 benchmark_unit=kcal/mol group=PS
  P   -0.478454737   0.323244234  -2.071659648
  P   -1.125458217  -1.272082788  -1.003358097
  H   -1.379875418   1.238823817  -1.457742459
  H   -0.215060920  -2.181569428  -1.612491690
  N    1.292575193   1.501795215   0.276569484
  C    0.147065187   1.685698303   0.929750905
  N   -0.458247299   0.784030033   1.695797144
  C    0.175679709  -0.382955723   1.779978469
  N    1.331678053  -0.678908613   1.189398874
  C    1.841069382   0.301890984   0.450913718
  H   -0.333142152   2.650899070   0.824589959
  H   -0.285260377  -1.155120605   2.383066429
  H    2.777231820   0.106754066  -0.057466938
