20
charge=0 charge_a=0 charge_b=0 selection_a=1-11 selection_b=12-20 scaling=2.00 benchmark_Eint=-0.167 benchmark_unit=kcal/mol group=PS
  C   -2.170349917   0.740364053  -0.220279637
  C   -1.176600895   1.142023833  -1.107166771
  C   -0.441634133   0.253170349  -1.874808091
  P   -0.628354450  -1.470778685  -1.866193830
  C   -1.899843252  -1.638446802  -0.701891672
  C   -2.513467358  -0.593361787  -0.029385815
  H   -2.694608038   1.497782662   0.345599254
  H   -0.966006676   2.200885241  -1.189492404
  H    0.320214443   0.655805250  -2.530482096
  H   -2.229869025  -2.646509861  -0.484335224
  H   -3.296717848  -0.822029002   0.682868470
  N    5.062415943   1.649348017   1.959862617
  C    4.590006706   2.798102786   2.435196406
  N    3.596320389   2.923281674   3.309989956
  C    3.073518915   1.768748510   3.717783910
  N    3.465863364   0.561496254   3.324665663
  C    4.456984832   0.564782821   2.437493514
  H    5.053182873   3.709996429   2.077632801
  H    2.260108640   1.817457252   4.430826520
  H    4.799331193  -0.395718299   2.073448044
