8
charge=0 charge_a=0 charge_b=0 selection_a=1-4 selection_b=5-8 scaling=2.00 benchmark_Eint=-0.221 benchmark_unit=kcal/mol group=PS
  P    1.485383606  -0.169844993  -0.456226625
  P    0.192392071   1.385897326  -0.298759724
  H    2.218937583   0.163291934   0.716082259
  H   -0.544206506   1.026441923  -1.462081365
  N   -4.593121595  -2.054915283   1.239107715
  N   -3.914554198  -2.927872128   1.024982684
  N   -3.273891860  -3.957009306   0.825486118
  H   -2.327228347  -3.723282692   0.513749144
