11
charge=0 charge_a=0 charge_b=0 selection_a=1-4 selection_b=5-11 scaling=1.05 benchmark_Eint=-1.556 benchmark_unit=kcal/mol group=PS
  P    0.805627587   0.688684945   1.571375418
  H    2.024147287   1.180301722   1.042994973
  H    0.173880506   1.956069637   1.544002661
  H    1.224544309   0.818482449   2.918297221
  C   -0.160787674   0.646796616  -2.131535021
  N   -0.392133308  -0.763369286  -1.826061360
  H   -0.794114101   1.352392873  -1.579368759
  H   -0.319784929   0.817804977  -3.195693646
  H    0.878993524   0.894644321  -1.919027234
  H   -1.343841265  -1.026440657  -2.043602489
  H   -0.254925765  -0.937962071  -0.838826443
