12
charge=0 charge_a=0 charge_b=0 selection_a=1-10 selection_b=11-12 scaling=1.05 benchmark_Eint=-1.268 benchmark_unit=kcal/mol group=PS
  C    1.031052245   1.153630395  -3.626016016
  S    0.840057448   0.504858137  -1.935479908
  S   -0.195547470  -1.239853606  -2.213672955
  C   -1.933053140  -0.696867588  -2.236265564
  H    1.625357999   2.062226652  -3.537254269
  H    0.065975375   1.399701451  -4.060249973
  H    1.554618851   0.435750089  -4.250345010
  H   -2.531324690  -1.600989630  -2.342918680
  H   -2.124803161  -0.040999936  -3.080892061
  H   -2.184983735  -0.201370236  -1.303780648
  N   -0.841699426  -0.196800762   1.322198380
  N    0.100580150  -0.221197164   1.869159175
