18
charge=0 charge_a=0 charge_b=0 selection_a=1-9 selection_b=10-18 scaling=2.00 benchmark_Eint=-0.273 benchmark_unit=kcal/mol group=PS
  C    2.195958559   0.622256624  -0.187762276
  C    1.419023301  -0.047753174  -1.172277001
  C    1.140493236  -1.339138396  -0.830876633
  S    1.823157097  -1.750018343   0.690148733
  C    2.491624555  -0.176922373   0.877891364
  H    2.509238407   1.651226115  -0.264141812
  H    1.077012310   0.412221828  -2.086036276
  H    0.564065447  -2.063640864  -1.378209930
  H    3.061533268   0.069212925   1.756541512
  N   -3.825274419   2.982643123   0.620358284
  C   -4.861225141   3.311163412  -0.145549859
  N   -5.816411591   2.479688930  -0.554857244
  C   -5.680238039   1.230088958  -0.117383763
  N   -4.691433891   0.782465500   0.650421547
  C   -3.786233627   1.701370676   0.979846094
  H   -4.934003849   4.343852352  -0.465304183
  H   -6.439990706   0.516735091  -0.413818259
  H   -2.949094946   1.380586686   1.585717236
