16
charge=0 charge_a=0 charge_b=0 selection_a=1-9 selection_b=10-16 scaling=1.05 benchmark_Eint=-3.041 benchmark_unit=kcal/mol group=PS
  C   -0.671648975   1.844973131  -1.173060504
  C   -1.944615392   1.264620265  -1.431098707
  C   -1.863335422   0.158221843  -2.226741054
  S   -0.238428915  -0.182013366  -2.667812579
  C    0.345409420   1.166444147  -1.779849609
  H   -0.520472273   2.721161134  -0.562533443
  H   -2.873612794   1.649343818  -1.040860803
  H   -2.663421123  -0.470416387  -2.575967102
  H    1.399220356   1.379641438  -1.748393960
  C    1.053175094  -1.173708612   1.083151771
  N   -0.402707299  -1.097790481   1.175919257
  H    1.437280666  -1.459181231   0.096435716
  H    1.427388610  -1.891727584   1.812660026
  H    1.478295017  -0.203003265   1.335886970
  H   -0.822417358  -1.985949198   0.936794022
  H   -0.764384443  -0.419401585   0.519116042
