17
charge=0 charge_a=0 charge_b=0 selection_a=1-10 selection_b=11-17 scaling=1.00 benchmark_Eint=-4.438 benchmark_unit=kcal/mol group=PS
  C   -1.045577882  -0.678256535  -2.254216655
  S    0.415542435  -1.377617619  -1.423678399
  S   -0.336390863  -2.989968204  -0.408615856
  C   -0.928659130  -2.264757035   1.153090527
  H   -0.693763759   0.197490860  -2.797138404
  H   -1.791903997  -0.372707826  -1.526908977
  H   -1.465845662  -1.399566672  -2.948361201
  H   -1.341894294  -3.091118759   1.730180996
  H   -1.703755448  -1.526459307   0.972820031
  H   -0.104872945  -1.816202680   1.700630011
  N   -1.431736921   1.287369656   0.705365314
  N   -0.543228869   1.682268383   0.129032282
  N    0.325626434   2.159777211  -0.584576962
  C    1.715946455   1.943107687  -0.150518086
  H    2.349946109   2.424501313  -0.886441749
  H    1.949223986   0.879340781  -0.114230638
  H    1.898301869   2.394818058   0.825773556
