17
charge=0 charge_a=0 charge_b=0 selection_a=1-10 selection_b=11-17 scaling=1.50 benchmark_Eint=-1.443 benchmark_unit=kcal/mol group=PS
  C   -1.045577882  -0.678256535  -2.254216655
  S    0.415542435  -1.377617619  -1.423678399
  S   -0.336390863  -2.989968204  -0.408615856
  C   -0.928659130  -2.264757035   1.153090527
  H   -0.693763759   0.197490860  -2.797138404
  H   -1.791903997  -0.372707826  -1.526908977
  H   -1.465845662  -1.399566672  -2.948361201
  H   -1.341894294  -3.091118759   1.730180996
  H   -1.703755448  -1.526459307   0.972820031
  H   -0.104872945  -1.816202680   1.700630011
  N   -1.297284513   2.650572036   1.006626562
  N   -0.408776461   3.045470763   0.430293530
  N    0.460078842   3.522979591  -0.283315714
  C    1.850398863   3.306310067   0.150743162
  H    2.484398517   3.787703693  -0.585180501
  H    2.083676394   2.242543161   0.187030610
  H    2.032754277   3.758020438   1.127034804
