15
charge=0 charge_a=0 charge_b=0 selection_a=1-6 selection_b=7-15 scaling=0.95 benchmark_Eint=-4.037 benchmark_unit=kcal/mol group=PS
  S    0.391374696  -1.950284132  -0.162402522
  S   -0.909492991  -1.149416160  -1.566211141
  S   -1.338271970   0.728557101  -0.791543354
  S    0.422309081   1.783666990  -1.104463120
  S    1.715255920   0.965224090   0.296538713
  S    2.147285101  -0.898048401  -0.512202700
  N   -1.794038514  -0.872240298   2.343886509
  C   -0.765084803  -0.074997545   2.617897610
  N   -0.813580085   1.252818468   2.680966446
  C   -2.008641076   1.774667181   2.421523982
  N   -3.105167094   1.083669083   2.120111408
  C   -2.936391238  -0.236138150   2.102547452
  H    0.192101817  -0.545605059   2.800552916
  H   -2.096567753   2.853863228   2.455142959
  H   -3.802461841  -0.843385248   1.868714663
