15
charge=0 charge_a=0 charge_b=0 selection_a=1-6 selection_b=7-15 scaling=0.90 benchmark_Eint=-2.860 benchmark_unit=kcal/mol group=PS
  S    0.391374696  -1.950284132  -0.162402522
  S   -0.909492991  -1.149416160  -1.566211141
  S   -1.338271970   0.728557101  -0.791543354
  S    0.422309081   1.783666990  -1.104463120
  S    1.715255920   0.965224090   0.296538713
  S    2.147285101  -0.898048401  -0.512202700
  N   -1.691223567  -0.897835661   2.209340585
  C   -0.662269856  -0.100592908   2.483351686
  N   -0.710765138   1.227223105   2.546420522
  C   -1.905826129   1.749071818   2.286978058
  N   -3.002352147   1.058073720   1.985565484
  C   -2.833576291  -0.261733513   1.968001528
  H    0.294916764  -0.571200422   2.666006992
  H   -1.993752806   2.828267865   2.320597035
  H   -3.699646894  -0.868980611   1.734168739
