18
charge=0 charge_a=0 charge_b=0 selection_a=1-9 selection_b=10-18 scaling=1.10 benchmark_Eint=-3.022 benchmark_unit=kcal/mol group=PS
  C    2.195958559   0.622256624  -0.187762276
  C    1.419023301  -0.047753174  -1.172277001
  C    1.140493236  -1.339138396  -0.830876633
  S    1.823157097  -1.750018343   0.690148733
  C    2.491624555  -0.176922373   0.877891364
  H    2.509238407   1.651226115  -0.264141812
  H    1.077012310   0.412221828  -2.086036276
  H    0.564065447  -2.063640864  -1.378209930
  H    3.061533268   0.069212925   1.756541512
  N   -1.441898620   1.940807049   0.552858675
  C   -2.477849342   2.269327338  -0.213049468
  N   -3.433035792   1.437852856  -0.622356853
  C   -3.296862240   0.188252884  -0.184883372
  N   -2.308058092  -0.259370574   0.582921938
  C   -1.402857828   0.659534602   0.912346485
  H   -2.550628050   3.302016278  -0.532803792
  H   -4.056614907  -0.525100983  -0.481317868
  H   -0.565719147   0.338750612   1.518217627
