18
charge=0 charge_a=0 charge_b=0 selection_a=1-9 selection_b=10-18 scaling=1.25 benchmark_Eint=-2.102 benchmark_unit=kcal/mol group=PS
  C    2.195958559   0.622256624  -0.187762276
  C    1.419023301  -0.047753174  -1.172277001
  C    1.140493236  -1.339138396  -0.830876633
  S    1.823157097  -1.750018343   0.690148733
  C    2.491624555  -0.176922373   0.877891364
  H    2.509238407   1.651226115  -0.264141812
  H    1.077012310   0.412221828  -2.086036276
  H    0.564065447  -2.063640864  -1.378209930
  H    3.061533268   0.069212925   1.756541512
  N   -1.839127920   2.114446394   0.564108610
  C   -2.875078642   2.442966683  -0.201799533
  N   -3.830265092   1.611492201  -0.611106918
  C   -3.694091540   0.361892229  -0.173633437
  N   -2.705287392  -0.085731229   0.594171873
  C   -1.800087128   0.833173947   0.923596420
  H   -2.947857350   3.475655623  -0.521553857
  H   -4.453844207  -0.351461638  -0.470067933
  H   -0.962948447   0.512389957   1.529467562
