14
charge=0 charge_a=0 charge_b=0 selection_a=1-9 selection_b=10-14 scaling=0.80 benchmark_Eint=0.360 benchmark_unit=kcal/mol group=PS
  C   -1.459347478   0.859712825  -0.285561873
  C   -1.956876256  -0.455665048  -0.499865393
  C   -1.027934798  -1.280198820  -1.067254840
  S    0.455564443  -0.460603505  -1.344298349
  C   -0.165716822   1.002925081  -0.696531079
  H   -2.033964410   1.658682738   0.155862176
  H   -2.956276329  -0.772182740  -0.245464376
  H   -1.134190650  -2.316165805  -1.337074063
  H    0.456091272   1.879149580  -0.644374139
  N    1.540442250   1.239967801   1.739543670
  N    0.904734562   0.311232120   1.858194515
  C    0.173039257  -0.742207850   1.983286261
  H   -0.579268326  -0.918326013   1.235168094
  H    0.371799261  -1.395262254   2.813712431
