15
charge=0 charge_a=0 charge_b=0 selection_a=1-6 selection_b=7-15 scaling=1.10 benchmark_Eint=-3.811 benchmark_unit=kcal/mol group=PS
  S    0.391374696  -1.950284132  -0.162402522
  S   -0.909492991  -1.149416160  -1.566211141
  S   -1.338271970   0.728557101  -0.791543354
  S    0.422309081   1.783666990  -1.104463120
  S    1.715255920   0.965224090   0.296538713
  S    2.147285101  -0.898048401  -0.512202700
  N   -2.102483355  -0.795454209   2.747524283
  C   -1.073529644   0.001788544   3.021535384
  N   -1.122024926   1.329604557   3.084604220
  C   -2.317085917   1.851453270   2.825161756
  N   -3.413611935   1.160455172   2.523749182
  C   -3.244836079  -0.159352061   2.506185226
  H   -0.116343024  -0.468818970   3.204190690
  H   -2.405012594   2.930649317   2.858780733
  H   -4.110906682  -0.766599159   2.272352437
