19
charge=0 charge_a=0 charge_b=0 selection_a=1-10 selection_b=11-19 scaling=1.10 benchmark_Eint=-3.544 benchmark_unit=kcal/mol group=PS
  C   -0.340302590   2.644602072   1.279060719
  C    0.793505256   2.197923571   0.409729402
  S    2.170319114   1.577882046   1.017204779
  C    0.552250650   2.337542931  -1.061209784
  H   -0.103136251   2.548907246   2.333031331
  H   -1.218960554   2.038375100   1.046707989
  H   -0.602717260   3.681208324   1.054085142
  H    0.273776602   3.366203345  -1.302289963
  H   -0.295699381   1.706281769  -1.337204593
  H    1.422509140   2.051425936  -1.642155361
  N    0.005917554  -2.905052654   0.098237479
  C   -0.048176501  -1.591523255  -0.104543119
  N   -1.161626999  -0.858675769  -0.098888044
  C   -2.276445536  -1.545755340   0.135257428
  N   -2.345615536  -2.855200951   0.355933281
  C   -1.171493199  -3.481154590   0.324675376
  H    0.885559505  -1.073119395  -0.282434430
  H   -3.207746171  -0.992104096   0.147693357
  H   -1.175376729  -4.550431292   0.497986874
