19
charge=0 charge_a=0 charge_b=0 selection_a=1-10 selection_b=11-19 scaling=0.95 benchmark_Eint=-3.736 benchmark_unit=kcal/mol group=PS
  C   -0.340302590   2.644602072   1.279060719
  C    0.793505256   2.197923571   0.409729402
  S    2.170319114   1.577882046   1.017204779
  C    0.552250650   2.337542931  -1.061209784
  H   -0.103136251   2.548907246   2.333031331
  H   -1.218960554   2.038375100   1.046707989
  H   -0.602717260   3.681208324   1.054085142
  H    0.273776602   3.366203345  -1.302289963
  H   -0.295699381   1.706281769  -1.337204593
  H    1.422509140   2.051425936  -1.642155361
  N    0.198163359  -2.542702349   0.134388177
  C    0.144069304  -1.229172950  -0.068392421
  N   -0.969381194  -0.496325464  -0.062737346
  C   -2.084199731  -1.183405035   0.171408126
  N   -2.153369731  -2.492850646   0.392083979
  C   -0.979247394  -3.118804285   0.360826074
  H    1.077805310  -0.710769090  -0.246283732
  H   -3.015500366  -0.629753791   0.183844055
  H   -0.983130924  -4.188080987   0.534137572
