17
charge=0 charge_a=0 charge_b=0 selection_a=1-10 selection_b=11-17 scaling=2.00 benchmark_Eint=-0.456 benchmark_unit=kcal/mol group=PS
  C   -1.045577882  -0.678256535  -2.254216655
  S    0.415542435  -1.377617619  -1.423678399
  S   -0.336390863  -2.989968204  -0.408615856
  C   -0.928659130  -2.264757035   1.153090527
  H   -0.693763759   0.197490860  -2.797138404
  H   -1.791903997  -0.372707826  -1.526908977
  H   -1.465845662  -1.399566672  -2.948361201
  H   -1.341894294  -3.091118759   1.730180996
  H   -1.703755448  -1.526459307   0.972820031
  H   -0.104872945  -1.816202680   1.700630011
  N   -1.162832105   4.013774417   1.307887811
  N   -0.274324053   4.408673144   0.731554779
  N    0.594531250   4.886181972   0.017945535
  C    1.984851271   4.669512448   0.452004411
  H    2.618850925   5.150906074  -0.283919252
  H    2.218128802   3.605745542   0.488291859
  H    2.167206685   5.121222819   1.428296053
