19
charge=0 charge_a=0 charge_b=0 selection_a=1-10 selection_b=11-19 scaling=0.85 benchmark_Eint=-1.873 benchmark_unit=kcal/mol group=PS
  C   -0.340302590   2.644602072   1.279060719
  C    0.793505256   2.197923571   0.409729402
  S    2.170319114   1.577882046   1.017204779
  C    0.552250650   2.337542931  -1.061209784
  H   -0.103136251   2.548907246   2.333031331
  H   -1.218960554   2.038375100   1.046707989
  H   -0.602717260   3.681208324   1.054085142
  H    0.273776602   3.366203345  -1.302289963
  H   -0.295699381   1.706281769  -1.337204593
  H    1.422509140   2.051425936  -1.642155361
  N    0.326327229  -2.301135479   0.158488642
  C    0.272233174  -0.987606080  -0.044291956
  N   -0.841217324  -0.254758594  -0.038636881
  C   -1.956035861  -0.941838165   0.195508591
  N   -2.025205861  -2.251283776   0.416184444
  C   -0.851083524  -2.877237415   0.384926539
  H    1.205969180  -0.469202220  -0.222183267
  H   -2.887336496  -0.388186921   0.207944520
  H   -0.854967054  -3.946514117   0.558238037
