14
charge=0 charge_a=0 charge_b=0 selection_a=1-12 selection_b=13-14 scaling=0.80 benchmark_Eint=0.941 benchmark_unit=kcal/mol group=PS
  S    1.051030660  -1.832738566  -2.621163409
  C   -0.717299198  -1.512293569  -2.869278951
  S   -1.531933286  -0.490133036  -1.611552426
  C   -0.642615622   1.064603962  -1.897699518
  S    1.134872743   1.050123285  -1.536897236
  C    1.666022604  -0.135662114  -2.802676151
  H   -1.210547356  -2.479852270  -2.844342005
  H   -0.873208063  -1.072971704  -3.854052623
  H   -1.083455264   1.795378312  -1.226804644
  H   -0.803906027   1.393517675  -2.923563374
  H    2.748637981  -0.192986087  -2.733855980
  H    1.404469873   0.242797703  -3.790316541
  N   -0.619656483   0.892954122   0.959293620
  N   -0.277005536   0.236215306   1.758420322
