17
charge=0 charge_a=0 charge_b=0 selection_a=1-10 selection_b=11-17 scaling=1.05 benchmark_Eint=-4.256 benchmark_unit=kcal/mol group=PS
  C   -1.045577882  -0.678256535  -2.254216655
  S    0.415542435  -1.377617619  -1.423678399
  S   -0.336390863  -2.989968204  -0.408615856
  C   -0.928659130  -2.264757035   1.153090527
  H   -0.693763759   0.197490860  -2.797138404
  H   -1.791903997  -0.372707826  -1.526908977
  H   -1.465845662  -1.399566672  -2.948361201
  H   -1.341894294  -3.091118759   1.730180996
  H   -1.703755448  -1.526459307   0.972820031
  H   -0.104872945  -1.816202680   1.700630011
  N   -1.418291680   1.423689894   0.735491439
  N   -0.529783628   1.818588621   0.159158407
  N    0.339071675   2.296097449  -0.554450837
  C    1.729391696   2.079427925  -0.120391961
  H    2.363391350   2.560821551  -0.856315624
  H    1.962669227   1.015661019  -0.084104513
  H    1.911747110   2.531138296   0.855899681
