18
charge=0 charge_a=0 charge_b=0 selection_a=1-9 selection_b=10-18 scaling=1.05 benchmark_Eint=-3.277 benchmark_unit=kcal/mol group=PS
  C    2.195958559   0.622256624  -0.187762276
  C    1.419023301  -0.047753174  -1.172277001
  C    1.140493236  -1.339138396  -0.830876633
  S    1.823157097  -1.750018343   0.690148733
  C    2.491624555  -0.176922373   0.877891364
  H    2.509238407   1.651226115  -0.264141812
  H    1.077012310   0.412221828  -2.086036276
  H    0.564065447  -2.063640864  -1.378209930
  H    3.061533268   0.069212925   1.756541512
  N   -1.309488854   1.882927267   0.549108697
  C   -2.345439576   2.211447556  -0.216799446
  N   -3.300626026   1.379973074  -0.626106831
  C   -3.164452474   0.130373102  -0.188633350
  N   -2.175648326  -0.317250356   0.579171960
  C   -1.270448062   0.601654820   0.908596507
  H   -2.418218284   3.244136496  -0.536553770
  H   -3.924205141  -0.582980765  -0.485067846
  H   -0.433309381   0.280870830   1.514467649
