18
charge=0 charge_a=0 charge_b=0 selection_a=1-9 selection_b=10-18 scaling=0.90 benchmark_Eint=-2.791 benchmark_unit=kcal/mol group=PS
  C    2.195958559   0.622256624  -0.187762276
  C    1.419023301  -0.047753174  -1.172277001
  C    1.140493236  -1.339138396  -0.830876633
  S    1.823157097  -1.750018343   0.690148733
  C    2.491624555  -0.176922373   0.877891364
  H    2.509238407   1.651226115  -0.264141812
  H    1.077012310   0.412221828  -2.086036276
  H    0.564065447  -2.063640864  -1.378209930
  H    3.061533268   0.069212925   1.756541512
  N   -0.912259554   1.709287921   0.537858763
  C   -1.948210276   2.037808210  -0.228049380
  N   -2.903396726   1.206333728  -0.637356765
  C   -2.767223174  -0.043266244  -0.199883284
  N   -1.778419026  -0.490889702   0.567922026
  C   -0.873218762   0.428015474   0.897346573
  H   -2.020988984   3.070497150  -0.547803704
  H   -3.526975841  -0.756620111  -0.496317780
  H   -0.036080081   0.107231484   1.503217715
