19
charge=0 charge_a=0 charge_b=0 selection_a=1-10 selection_b=11-19 scaling=1.50 benchmark_Eint=-1.321 benchmark_unit=kcal/mol group=PS
  C   -0.340302590   2.644602072   1.279060719
  C    0.793505256   2.197923571   0.409729402
  S    2.170319114   1.577882046   1.017204779
  C    0.552250650   2.337542931  -1.061209784
  H   -0.103136251   2.548907246   2.333031331
  H   -1.218960554   2.038375100   1.046707989
  H   -0.602717260   3.681208324   1.054085142
  H    0.273776602   3.366203345  -1.302289963
  H   -0.295699381   1.706281769  -1.337204593
  H    1.422509140   2.051425936  -1.642155361
  N   -0.506737927  -3.871320133   0.001835617
  C   -0.560831982  -2.557790734  -0.200944981
  N   -1.674282480  -1.824943248  -0.195289906
  C   -2.789101017  -2.512022819   0.038855566
  N   -2.858271017  -3.821468430   0.259531419
  C   -1.684148680  -4.447422069   0.228273514
  H    0.372904024  -2.039386874  -0.378836292
  H   -3.720401652  -1.958371575   0.051291495
  H   -1.688032210  -5.516698771   0.401585012
