14
charge=0 charge_a=0 charge_b=0 selection_a=1-9 selection_b=10-14 scaling=0.85 benchmark_Eint=-1.814 benchmark_unit=kcal/mol group=PS
  C   -1.459347478   0.859712825  -0.285561873
  C   -1.956876256  -0.455665048  -0.499865393
  C   -1.027934798  -1.280198820  -1.067254840
  S    0.455564443  -0.460603505  -1.344298349
  C   -0.165716822   1.002925081  -0.696531079
  H   -2.033964410   1.658682738   0.155862176
  H   -2.956276329  -0.772182740  -0.245464376
  H   -1.134190650  -2.316165805  -1.337074063
  H    0.456091272   1.879149580  -0.644374139
  N    1.603307368   1.257844041   1.862621967
  N    0.967599680   0.329108360   1.981272812
  C    0.235904375  -0.724331610   2.106364558
  H   -0.516403208  -0.900449773   1.358246391
  H    0.434664379  -1.377386014   2.936790728
