16
charge=0 charge_a=0 charge_b=0 selection_a=1-9 selection_b=10-16 scaling=0.90 benchmark_Eint=-2.572 benchmark_unit=kcal/mol group=PS
  C   -0.671648975   1.844973131  -1.173060504
  C   -1.944615392   1.264620265  -1.431098707
  C   -1.863335422   0.158221843  -2.226741054
  S   -0.238428915  -0.182013366  -2.667812579
  C    0.345409420   1.166444147  -1.779849609
  H   -0.520472273   2.721161134  -0.562533443
  H   -2.873612794   1.649343818  -1.040860803
  H   -2.663421123  -0.470416387  -2.575967102
  H    1.399220356   1.379641438  -1.748393960
  C    0.939409231  -0.982362681   0.744301077
  N   -0.516473162  -0.906444550   0.837068563
  H    1.323514803  -1.267835300  -0.242414978
  H    1.313622747  -1.700381653   1.473809332
  H    1.364529154  -0.011657334   0.997036276
  H   -0.936183221  -1.794603267   0.597943328
  H   -0.878150306  -0.228055654   0.180265348
