15
charge=0 charge_a=0 charge_b=0 selection_a=1-6 selection_b=7-15 scaling=1.50 benchmark_Eint=-1.017 benchmark_unit=kcal/mol group=PS
  S    0.391374696  -1.950284132  -0.162402522
  S   -0.909492991  -1.149416160  -1.566211141
  S   -1.338271970   0.728557101  -0.791543354
  S    0.422309081   1.783666990  -1.104463120
  S    1.715255920   0.965224090   0.296538713
  S    2.147285101  -0.898048401  -0.512202700
  N   -2.925002932  -0.590691304   3.823891680
  C   -1.896049221   0.206551449   4.097902781
  N   -1.944544503   1.534367462   4.160971617
  C   -3.139605494   2.056216175   3.901529153
  N   -4.236131512   1.365218077   3.600116579
  C   -4.067355656   0.045410844   3.582552623
  H   -0.938862601  -0.264056065   4.280558087
  H   -3.227532171   3.135412222   3.935148130
  H   -4.933426259  -0.561836254   3.348719834
