19
charge=0 charge_a=0 charge_b=0 selection_a=1-12 selection_b=13-19 scaling=0.90 benchmark_Eint=-4.832 benchmark_unit=kcal/mol group=PS
  S    1.697451917  -0.385211495  -0.694573197
  C    0.168341090  -0.888198215  -1.530718953
  S   -1.373186180  -0.227185621  -0.841264763
  C   -1.105385917   1.533477796  -1.181876581
  S    0.273617122   2.319709011  -0.301127547
  C    1.643097030   1.392375688  -1.049404536
  H    0.106580501  -1.966683253  -1.423359446
  H    0.232494143  -0.641408490  -2.589543599
  H   -2.006505854   2.048787843  -0.861542517
  H   -0.985298066   1.687053463  -2.253665462
  H    2.557425514   1.815365137  -0.642915070
  H    1.641765891   1.551531626  -2.127096063
  N   -0.100510825  -2.897930626   0.763326229
  N   -0.318062585  -2.150177841   1.584133978
  N   -0.647098401  -1.438792988   2.517713919
  C    0.078540649  -0.166982739   2.674229928
  H   -0.319185491   0.306086040   3.565217560
  H   -0.075055922   0.481433336   1.813706593
  H    1.147887817  -0.338057378   2.804911106
