16
charge=0 charge_a=0 charge_b=0 selection_a=1-9 selection_b=10-16 scaling=0.90 benchmark_Eint=-3.643 benchmark_unit=kcal/mol group=PS
  C   -1.182190275   0.961472426  -0.742990594
  C   -1.864105075  -0.068132541  -0.037759151
  C   -1.737282970  -1.286918425  -0.637594722
  S   -0.788211008  -1.189776957  -2.067252121
  C   -0.553149988   0.500734972  -1.863234965
  H   -1.156897431   1.991476312  -0.424939348
  H   -2.414074893   0.091640278   0.876025641
  H   -2.142628263  -2.230933454  -0.318655180
  H    0.028741110   1.057240478  -2.576749631
  N   -0.224180668   1.663512754   2.228461598
  N    0.202893233   0.623001907   2.115043169
  N    0.605314050  -0.530374019   2.109592205
  C    1.409818975  -0.934834580   0.944871721
  H    1.680893838  -1.972803801   1.101139152
  H    2.320145143  -0.337788201   0.868910664
  H    0.839875198  -0.848533198   0.021448357
