17
charge=0 charge_a=0 charge_b=0 selection_a=1-10 selection_b=11-17 scaling=0.85 benchmark_Eint=-2.571 benchmark_unit=kcal/mol group=PS
  C   -1.045577882  -0.678256535  -2.254216655
  S    0.415542435  -1.377617619  -1.423678399
  S   -0.336390863  -2.989968204  -0.408615856
  C   -0.928659130  -2.264757035   1.153090527
  H   -0.693763759   0.197490860  -2.797138404
  H   -1.791903997  -0.372707826  -1.526908977
  H   -1.465845662  -1.399566672  -2.948361201
  H   -1.341894294  -3.091118759   1.730180996
  H   -1.703755448  -1.526459307   0.972820031
  H   -0.104872945  -1.816202680   1.700630011
  N   -1.472072643   0.878408942   0.614986940
  N   -0.583564591   1.273307669   0.038653908
  N    0.285290712   1.750816497  -0.674955336
  C    1.675610733   1.534146973  -0.240896460
  H    2.309610387   2.015540599  -0.976820123
  H    1.908888264   0.470380067  -0.204609012
  H    1.857966147   1.985857344   0.735395182
