16
charge=0 charge_a=0 charge_b=0 selection_a=1-9 selection_b=10-16 scaling=1.25 benchmark_Eint=-2.578 benchmark_unit=kcal/mol group=PS
  C   -1.182190275   0.961472426  -0.742990594
  C   -1.864105075  -0.068132541  -0.037759151
  C   -1.737282970  -1.286918425  -0.637594722
  S   -0.788211008  -1.189776957  -2.067252121
  C   -0.553149988   0.500734972  -1.863234965
  H   -1.156897431   1.991476312  -0.424939348
  H   -2.414074893   0.091640278   0.876025641
  H   -2.142628263  -2.230933454  -0.318655180
  H    0.028741110   1.057240478  -2.576749631
  N    0.247007718   1.835875085   3.111630660
  N    0.674081619   0.795364238   2.998212231
  N    1.076502436  -0.358011688   2.992761267
  C    1.881007361  -0.762472249   1.828040783
  H    2.152082224  -1.800441470   1.984308214
  H    2.791333529  -0.165425870   1.752079726
  H    1.311063584  -0.676170867   0.904617419
