14
charge=0 charge_a=0 charge_b=0 selection_a=1-4 selection_b=5-14 scaling=1.05 benchmark_Eint=-2.718 benchmark_unit=kcal/mol group=PS
  P    0.726751633   0.698873771  -1.675083892
  P   -0.426031190  -0.915833321  -1.262718851
  H    0.729642988   1.177262571  -0.336427222
  H   -0.414909558  -1.391341369  -2.607074835
  C   -1.058522533   2.581723875   1.838208636
  O    0.022499915   1.733640316   2.157985764
  O   -0.516122921   0.379351216   2.045295876
  C    0.514643948  -0.468862908   2.499903237
  H   -0.653099812   3.589371002   1.911769913
  H   -1.879137726   2.458265093   2.546952361
  H   -1.414795956   2.399764110   0.822381845
  H    0.110920174  -1.473970288   2.394427563
  H    0.757071959  -0.270164091   3.545297670
  H    1.409486551  -0.368309205   1.882854968
