14
charge=0 charge_a=0 charge_b=0 selection_a=1-4 selection_b=5-14 scaling=0.95 benchmark_Eint=-3.247 benchmark_unit=kcal/mol group=PS
  P    1.411784968   0.326935107  -0.555950344
  P   -0.623724648   0.805506266   0.120406366
  P   -0.222019452  -1.101065264  -0.894289072
  P   -0.161247969   0.787669377  -2.034188493
  C    0.773944175  -0.686820058   3.168287863
  O    1.646707629  -1.254115128   2.216474027
  O    0.959990406  -2.448520188   1.731340769
  C    1.953358078  -3.204340738   1.073783031
  H    1.273114151   0.223849283   3.494487663
  H    0.624663962  -1.356805196   4.016788725
  H   -0.188123965  -0.434814379   2.718656362
  H    1.429176807  -4.079461719   0.693660581
  H    2.738953142  -3.510660944   1.766481480
  H    2.384859024  -2.645849675   0.241372645
