33
charge=0 charge_a=0 charge_b=0 selection_a=1-11 selection_b=12-33 scaling=1.00 benchmark_Eint=-4.342 benchmark_unit=kcal/mol group=PS
  C   -0.896073793   1.891856610  -1.335436953
  C   -1.476306012   0.769681961  -1.916318766
  C   -2.788515806   0.388517428  -1.685465325
  P   -3.908565000   1.218489147  -0.653283555
  C   -2.911188149   2.527017655  -0.108593926
  C   -1.589188029   2.733690649  -0.474037453
  H    0.142259255   2.102308590  -1.545396889
  H   -0.860491716   0.159104477  -2.563477949
  H   -3.154244339  -0.502451349  -2.181477216
  H   -3.366186071   3.232347928   0.575811357
  H   -1.062865349   3.585385724  -0.060832810
  C   -0.544592593  -0.226926778   1.631606524
  C    0.250268735  -1.276446086   0.877331507
  C   -0.600161501  -2.417482532   0.357207900
  O    0.900515400  -0.752147376  -0.282579679
  O    1.830650376   0.275160080   0.143645162
  C    2.822086097  -0.340387194   0.968864668
  C    3.660622670   0.810162383   1.488738614
  C    3.623972528  -1.390200076   0.220252179
  O    2.174768986  -0.870490298   2.124033448
  O    1.245967246  -1.897900404   1.691574811
  H   -1.335795397   0.157581503   0.994681108
  H    0.086788928   0.596504487   1.942752208
  H   -0.987244607  -0.683775118   2.514061067
  H   -1.364323434  -2.019881936  -0.305832661
  H   -1.082733515  -2.917998913   1.193217981
  H    0.015109526  -3.132235084  -0.182980975
  H    4.151332480   1.307236026   0.655303597
  H    4.417768169   0.428351709   2.169320730
  H    3.032809214   1.524391763   2.014844915
  H    4.115858371  -0.928240627  -0.633129753
  H    2.985214344  -2.190878760  -0.133134587
  H    4.378107755  -1.808256165   0.883521076
