14
charge=0 charge_a=0 charge_b=0 selection_a=1-4 selection_b=5-14 scaling=0.85 benchmark_Eint=-1.543 benchmark_unit=kcal/mol group=PS
  P    0.726751633   0.698873771  -1.675083892
  P   -0.426031190  -0.915833321  -1.262718851
  H    0.729642988   1.177262571  -0.336427222
  H   -0.414909558  -1.391341369  -2.607074835
  C   -1.004103669   2.427184396   1.359966811
  O    0.076918779   1.579100837   1.679743939
  O   -0.461704057   0.224811737   1.567054051
  C    0.569062812  -0.623402387   2.021661412
  H   -0.598680948   3.434831523   1.433528088
  H   -1.824718862   2.303725614   2.068710536
  H   -1.360377092   2.245224631   0.344140020
  H    0.165339038  -1.628509767   1.916185738
  H    0.811490823  -0.424703570   3.067055845
  H    1.463905415  -0.522848684   1.404613143
