14
charge=0 charge_a=0 charge_b=0 selection_a=1-4 selection_b=5-14 scaling=0.85 benchmark_Eint=-0.457 benchmark_unit=kcal/mol group=PS
  P    1.411784968   0.326935107  -0.555950344
  P   -0.623724648   0.805506266   0.120406366
  P   -0.222019452  -1.101065264  -0.894289072
  P   -0.161247969   0.787669377  -2.034188493
  C    0.674173066  -0.516536412   2.934413775
  O    1.546936520  -1.083831482   1.982599939
  O    0.860219297  -2.278236542   1.497466681
  C    1.853586969  -3.034057092   0.839908943
  H    1.173343042   0.394132929   3.260613575
  H    0.524892853  -1.186521550   3.782914637
  H   -0.287895074  -0.264530733   2.484782274
  H    1.329405698  -3.909178073   0.459786493
  H    2.639182033  -3.340377298   1.532607392
  H    2.285087915  -2.475566029   0.007498557
