14
charge=0 charge_a=0 charge_b=0 selection_a=1-4 selection_b=5-14 scaling=2.00 benchmark_Eint=-0.237 benchmark_unit=kcal/mol group=PS
  P    0.726751633   0.698873771  -1.675083892
  P   -0.426031190  -0.915833321  -1.262718851
  H    0.729642988   1.177262571  -0.336427222
  H   -0.414909558  -1.391341369  -2.607074835
  C   -1.317012137   3.315786401   4.109857307
  O   -0.235989689   2.467702842   4.429634435
  O   -0.774612525   1.113413742   4.316944547
  C    0.256154344   0.265199618   4.771551908
  H   -0.911589416   4.323433528   4.183418584
  H   -2.137627330   3.192327619   4.818601032
  H   -1.673285560   3.133826636   3.094030516
  H   -0.147569430  -0.739907762   4.666076234
  H    0.498582355   0.463898435   5.816946341
  H    1.150996947   0.365753321   4.154503639
