33
charge=0 charge_a=0 charge_b=0 selection_a=1-11 selection_b=12-33 scaling=1.05 benchmark_Eint=-4.192 benchmark_unit=kcal/mol group=PS
  C   -0.896073793   1.891856610  -1.335436953
  C   -1.476306012   0.769681961  -1.916318766
  C   -2.788515806   0.388517428  -1.685465325
  P   -3.908565000   1.218489147  -0.653283555
  C   -2.911188149   2.527017655  -0.108593926
  C   -1.589188029   2.733690649  -0.474037453
  H    0.142259255   2.102308590  -1.545396889
  H   -0.860491716   0.159104477  -2.563477949
  H   -3.154244339  -0.502451349  -2.181477216
  H   -3.366186071   3.232347928   0.575811357
  H   -1.062865349   3.585385724  -0.060832810
  C   -0.426085415  -0.294429198   1.686157056
  C    0.368775913  -1.343948506   0.931882039
  C   -0.481654323  -2.484984952   0.411758432
  O    1.019022578  -0.819649796  -0.228029147
  O    1.949157554   0.207657660   0.198195694
  C    2.940593275  -0.407889614   1.023415200
  C    3.779129848   0.742659963   1.543289146
  C    3.742479706  -1.457702496   0.274802711
  O    2.293276164  -0.937992718   2.178583980
  O    1.364474424  -1.965402824   1.746125343
  H   -1.217288219   0.090079083   1.049231640
  H    0.205296106   0.529002067   1.997302740
  H   -0.868737429  -0.751277538   2.568611599
  H   -1.245816256  -2.087384356  -0.251282129
  H   -0.964226337  -2.985501333   1.247768513
  H    0.133616704  -3.199737504  -0.128430443
  H    4.269839658   1.239733606   0.709854129
  H    4.536275347   0.360849289   2.223871262
  H    3.151316392   1.456889343   2.069395447
  H    4.234365549  -0.995743047  -0.578579221
  H    3.103721522  -2.258381180  -0.078584055
  H    4.496614933  -1.875758585   0.938071608
