14
charge=0 charge_a=0 charge_b=0 selection_a=1-11 selection_b=12-14 scaling=1.10 benchmark_Eint=-2.132 benchmark_unit=kcal/mol group=PS
  C   -0.881208186   1.195622042  -0.909082981
  C    0.483633480   1.339648581  -0.686763766
  C    1.368485790   0.270986020  -0.680674141
  P    0.939993776  -1.387368213  -0.945924808
  C   -0.769755288  -1.228551028  -1.185972797
  C   -1.477609446  -0.038295747  -1.147967827
  H   -1.504845301   2.078531100  -0.894663723
  H    0.870524802   2.334926778  -0.505858095
  H    2.414025777   0.479741649  -0.491783878
  H   -1.320303854  -2.141579275  -1.375417915
  H   -2.548419881  -0.064508032  -1.307721273
  O    1.368784269   0.971268741   3.002598738
  C    0.401619141   0.355514377   2.831279692
  O   -0.567969984  -0.258203477   2.676545198
