14
charge=0 charge_a=0 charge_b=0 selection_a=1-4 selection_b=5-14 scaling=1.50 benchmark_Eint=-0.909 benchmark_unit=kcal/mol group=PS
  P    0.726751633   0.698873771  -1.675083892
  P   -0.426031190  -0.915833321  -1.262718851
  H    0.729642988   1.177262571  -0.336427222
  H   -0.414909558  -1.391341369  -2.607074835
  C   -1.180964977   2.929437703   2.914252744
  O   -0.099942529   2.081354144   3.234029872
  O   -0.638565365   0.727065044   3.121339984
  C    0.392201504  -0.121149080   3.575947345
  H   -0.775542256   3.937084830   2.987814021
  H   -2.001580170   2.805978921   3.622996469
  H   -1.537238400   2.747477938   1.898425953
  H   -0.011522270  -1.126256460   3.470471671
  H    0.634629515   0.077549737   4.621341778
  H    1.287044107  -0.020595377   2.958899076
