14
charge=0 charge_a=0 charge_b=0 selection_a=1-4 selection_b=5-14 scaling=0.90 benchmark_Eint=-2.392 benchmark_unit=kcal/mol group=PS
  P    1.411784968   0.326935107  -0.555950344
  P   -0.623724648   0.805506266   0.120406366
  P   -0.222019452  -1.101065264  -0.894289072
  P   -0.161247969   0.787669377  -2.034188493
  C    0.724058620  -0.601678235   3.051350819
  O    1.596822074  -1.168973305   2.099536983
  O    0.910104851  -2.363378365   1.614403725
  C    1.903472523  -3.119198915   0.956845987
  H    1.223228596   0.308991106   3.377550619
  H    0.574778407  -1.271663373   3.899851681
  H   -0.238009520  -0.349672556   2.601719318
  H    1.379291252  -3.994319896   0.576723537
  H    2.689067587  -3.425519121   1.649544436
  H    2.334973469  -2.560707852   0.124435601
