14
charge=0 charge_a=0 charge_b=0 selection_a=1-4 selection_b=5-14 scaling=0.95 benchmark_Eint=-2.730 benchmark_unit=kcal/mol group=PS
  P    0.726751633   0.698873771  -1.675083892
  P   -0.426031190  -0.915833321  -1.262718851
  H    0.729642988   1.177262571  -0.336427222
  H   -0.414909558  -1.391341369  -2.607074835
  C   -1.031313101   2.504454135   1.599087724
  O    0.049709347   1.656370576   1.918864852
  O   -0.488913489   0.302081476   1.806174964
  C    0.541853380  -0.546132648   2.260782325
  H   -0.625890380   3.512101262   1.672649001
  H   -1.851928294   2.380995353   2.307831449
  H   -1.387586524   2.322494370   0.583260933
  H    0.138129606  -1.551240028   2.155306651
  H    0.784281391  -0.347433831   3.306176758
  H    1.436695983  -0.445578945   1.643734056
