33
charge=0 charge_a=0 charge_b=0 selection_a=1-11 selection_b=12-33 scaling=2.00 benchmark_Eint=-0.442 benchmark_unit=kcal/mol group=PS
  C   -0.896073793   1.891856610  -1.335436953
  C   -1.476306012   0.769681961  -1.916318766
  C   -2.788515806   0.388517428  -1.685465325
  P   -3.908565000   1.218489147  -0.653283555
  C   -2.911188149   2.527017655  -0.108593926
  C   -1.589188029   2.733690649  -0.474037453
  H    0.142259255   2.102308590  -1.545396889
  H   -0.860491716   0.159104477  -2.563477949
  H   -3.154244339  -0.502451349  -2.181477216
  H   -3.366186071   3.232347928   0.575811357
  H   -1.062865349   3.585385724  -0.060832810
  C    1.825550971  -1.576975182   2.722617159
  C    2.620412299  -2.626494490   1.968342142
  C    1.769982063  -3.767530936   1.448218535
  O    3.270658964  -2.102195780   0.808430956
  O    4.200793940  -1.074888324   1.234655797
  C    5.192229661  -1.690435598   2.059875303
  C    6.030766234  -0.539886021   2.579749249
  C    5.994116092  -2.740248480   1.311262814
  O    4.544912550  -2.220538702   3.215044083
  O    3.616110810  -3.247948808   2.782585446
  H    1.034348167  -1.192466901   2.085691743
  H    2.456932492  -0.753543917   3.033762843
  H    1.382898957  -2.033823522   3.605071702
  H    1.005820130  -3.369930340   0.785177974
  H    1.287410049  -4.268047317   2.284228616
  H    2.385253090  -4.482283488   0.908029660
  H    6.521476044  -0.042812378   1.746314232
  H    6.787911733  -0.921696695   3.260331365
  H    5.402952778   0.174343359   3.105855550
  H    6.486001935  -2.278289031   0.457880882
  H    5.355357908  -3.540927164   0.957876048
  H    6.748251319  -3.158304569   1.974531711
