33
charge=0 charge_a=0 charge_b=0 selection_a=1-11 selection_b=12-33 scaling=0.80 benchmark_Eint=0.492 benchmark_unit=kcal/mol group=PS
  C   -0.896073793   1.891856610  -1.335436953
  C   -1.476306012   0.769681961  -1.916318766
  C   -2.788515806   0.388517428  -1.685465325
  P   -3.908565000   1.218489147  -0.653283555
  C   -2.911188149   2.527017655  -0.108593926
  C   -1.589188029   2.733690649  -0.474037453
  H    0.142259255   2.102308590  -1.545396889
  H   -0.860491716   0.159104477  -2.563477949
  H   -3.154244339  -0.502451349  -2.181477216
  H   -3.366186071   3.232347928   0.575811357
  H   -1.062865349   3.585385724  -0.060832810
  C   -1.018621306   0.043082903   1.413404397
  C   -0.223759978  -1.006436405   0.659129380
  C   -1.074190214  -2.147472851   0.139005773
  O    0.426486687  -0.482137695  -0.500781806
  O    1.356621663   0.545169761  -0.074556965
  C    2.348057384  -0.070377513   0.750662541
  C    3.186593957   1.080172064   1.270536487
  C    3.149943815  -1.120190395   0.002050052
  O    1.700740273  -0.600480617   1.905831321
  O    0.771938533  -1.627890723   1.473372684
  H   -1.809824110   0.427591184   0.776478981
  H   -0.387239785   0.866514168   1.724550081
  H   -1.461273320  -0.413765437   2.295858940
  H   -1.838352147  -1.749872255  -0.524034788
  H   -1.556762228  -2.647989232   0.975015854
  H   -0.458919187  -2.862225403  -0.401183102
  H    3.677303767   1.577245707   0.437101470
  H    3.943739456   0.698361390   1.951118603
  H    2.558780501   1.794401444   1.796642788
  H    3.641829658  -0.658230946  -0.851331880
  H    2.511185631  -1.920869079  -0.351336714
  H    3.904079042  -1.538246484   0.665318949
