14
charge=0 charge_a=0 charge_b=0 selection_a=1-4 selection_b=5-14 scaling=1.25 benchmark_Eint=-1.819 benchmark_unit=kcal/mol group=PS
  P    0.726751633   0.698873771  -1.675083892
  P   -0.426031190  -0.915833321  -1.262718851
  H    0.729642988   1.177262571  -0.336427222
  H   -0.414909558  -1.391341369  -2.607074835
  C   -1.112941397   2.736263354   2.316450462
  O   -0.031918949   1.888179795   2.636227590
  O   -0.570541785   0.533890695   2.523537702
  C    0.460225084  -0.314323429   2.978145063
  H   -0.707518676   3.743910481   2.390011739
  H   -1.933556590   2.612804572   3.025194187
  H   -1.469214820   2.554303589   1.300623671
  H    0.056501310  -1.319430809   2.872669389
  H    0.702653095  -0.115624612   4.023539496
  H    1.355067687  -0.213769726   2.361096794
