14
charge=0 charge_a=0 charge_b=0 selection_a=1-4 selection_b=5-14 scaling=0.80 benchmark_Eint=-0.020 benchmark_unit=kcal/mol group=PS
  P    0.726751633   0.698873771  -1.675083892
  P   -0.426031190  -0.915833321  -1.262718851
  H    0.729642988   1.177262571  -0.336427222
  H   -0.414909558  -1.391341369  -2.607074835
  C   -0.990498953   2.388549526   1.240406355
  O    0.090523495   1.540465967   1.560183483
  O   -0.448099341   0.186176867   1.447493595
  C    0.582667528  -0.662037257   1.902100956
  H   -0.585076232   3.396196653   1.313967632
  H   -1.811114146   2.265090744   1.949150080
  H   -1.346772376   2.206589761   0.224579564
  H    0.178943754  -1.667144637   1.796625282
  H    0.825095539  -0.463338440   2.947495389
  H    1.477510131  -0.561483554   1.285052687
