9
charge=0 charge_a=0 charge_b=0 selection_a=1-6 selection_b=7-9 scaling=0.95 benchmark_Eint=-2.020 benchmark_unit=kcal/mol group=PS
  P   -2.286517836  -0.953657755   1.132982090
  P   -0.310616741  -0.841192632   2.199634553
  H   -1.702253846  -1.331941972  -0.103631324
  H   -2.282845265   0.422305672   0.786075814
  H   -0.301901213  -2.217199244   2.541979383
  H   -0.885555930  -0.461697424   3.439026000
  O    0.212413272   1.811112474  -0.026827771
  C    0.544715078   0.816378404  -0.519255725
  O    0.874438863  -0.172760873  -1.024521853
