14
charge=0 charge_a=0 charge_b=0 selection_a=1-4 selection_b=5-14 scaling=1.25 benchmark_Eint=-1.992 benchmark_unit=kcal/mol group=PS
  P    1.411784968   0.326935107  -0.555950344
  P   -0.623724648   0.805506266   0.120406366
  P   -0.222019452  -1.101065264  -0.894289072
  P   -0.161247969   0.787669377  -2.034188493
  C    1.073257501  -1.197670995   3.869910126
  O    1.946020955  -1.764966065   2.918096290
  O    1.259303732  -2.959371125   2.432963032
  C    2.252671404  -3.715191675   1.775405294
  H    1.572427477  -0.287001654   4.196109926
  H    0.923977288  -1.867656133   4.718410988
  H    0.111189361  -0.945665316   3.420278625
  H    1.728490133  -4.590312656   1.395282844
  H    3.038266468  -4.021511881   2.468103743
  H    2.684172350  -3.156700612   0.942994908
