14
charge=0 charge_a=0 charge_b=0 selection_a=1-4 selection_b=5-14 scaling=1.50 benchmark_Eint=-0.844 benchmark_unit=kcal/mol group=PS
  P    1.411784968   0.326935107  -0.555950344
  P   -0.623724648   0.805506266   0.120406366
  P   -0.222019452  -1.101065264  -0.894289072
  P   -0.161247969   0.787669377  -2.034188493
  C    1.322685272  -1.623380110   4.454595345
  O    2.195448726  -2.190675180   3.502781509
  O    1.508731503  -3.385080240   3.017648251
  C    2.502099175  -4.140900790   2.360090513
  H    1.821855248  -0.712710769   4.780795145
  H    1.173405059  -2.293365248   5.303096207
  H    0.360617132  -1.371374431   4.004963844
  H    1.977917904  -5.016021771   1.979968063
  H    3.287694239  -4.447220996   3.052788962
  H    2.933600121  -3.582409727   1.527680127
