12
charge=0 charge_a=0 charge_b=0 selection_a=1-9 selection_b=10-12 scaling=2.00 benchmark_Eint=-0.123 benchmark_unit=kcal/mol group=PS
  C   -1.265385273   1.382324477  -0.069161387
  C   -2.116697210   0.245849518   0.011002686
  C   -1.679212971  -0.791229731  -0.758673117
  S   -0.227580542  -0.392801754  -1.586811211
  C   -0.200381436   1.182367114  -0.898666361
  H   -1.437406889   2.304269410   0.463988795
  H   -3.007576299   0.200846311   0.617300438
  H   -2.121728642  -1.764322724  -0.878598699
  H    0.594231389   1.865640678  -1.140800262
  O    4.779395934   0.088978446   3.155857244
  C    3.910640886  -0.531188833   3.608850450
  O    3.056063364  -1.155982625   4.077704554
