19
charge=0 charge_a=0 charge_b=0 selection_a=1-10 selection_b=11-19 scaling=1.50 benchmark_Eint=-1.491 benchmark_unit=kcal/mol group=PS
  C    1.312117504   0.843904098  -3.497663443
  S    1.252784224  -0.354058447  -2.127608426
  S   -0.440073011  -1.438250131  -2.517429120
  C   -1.764774417  -0.445023201  -1.758622229
  H    2.229731090   1.415600890  -3.364054741
  H    0.461813590   1.519190684  -3.459777660
  H    1.341130638   0.326166808  -4.451830612
  H   -2.682659369  -1.014058409  -1.903417392
  H   -1.860793177   0.515417626  -2.257842977
  H   -1.571853640  -0.318750069  -0.697502104
  C    0.163342042  -1.918469228   2.447440216
  O   -0.524758562  -0.687262821   2.527570996
  C    0.329641911   0.388040832   2.854246016
  H   -0.558032227  -2.676883053   2.155305040
  H    0.601237656  -2.189104633   3.414904746
  H    0.959679108  -1.880958764   1.698090057
  H   -0.281319991   1.286466738   2.901275732
  H    1.104993120   0.520785774   2.093343338
  H    0.809352631   0.231442045   3.827085829
