6
charge=0 charge_a=0 charge_b=0 selection_a=1-3 selection_b=4-6 scaling=0.80 benchmark_Eint=2.639 benchmark_unit=kcal/mol group=PS
  S    0.195669900  -0.071821274  -2.174003646
  C   -1.282337347  -0.028857767  -1.694812988
  S   -2.754571324   0.013562401  -1.213338088
  O   -0.492234398  -0.343772339   0.953453668
  C    0.624680253  -0.384585227   0.647904756
  O    1.743681505  -0.426288917   0.349968260
