6
charge=0 charge_a=0 charge_b=0 selection_a=1-3 selection_b=4-6 scaling=1.05 benchmark_Eint=-1.447 benchmark_unit=kcal/mol group=PS
  S    0.195669900  -0.071821274  -2.174003646
  C   -1.282337347  -0.028857767  -1.694812988
  S   -2.754571324   0.013562401  -1.213338088
  O    0.044076992  -0.443928304   1.613383811
  C    1.160991643  -0.484741192   1.307834899
  O    2.279992895  -0.526444882   1.009898403
