6
charge=0 charge_a=0 charge_b=0 selection_a=1-3 selection_b=4-6 scaling=0.95 benchmark_Eint=-1.486 benchmark_unit=kcal/mol group=PS
  S    0.195669900  -0.071821274  -2.174003646
  C   -1.282337347  -0.028857767  -1.694812988
  S   -2.754571324   0.013562401  -1.213338088
  O   -0.170447564  -0.403865918   1.349411753
  C    0.946467087  -0.444678806   1.043862841
  O    2.065468339  -0.486382496   0.745926345
