21
charge=0 charge_a=0 charge_b=0 selection_a=1-9 selection_b=10-21 scaling=1.05 benchmark_Eint=-3.172 benchmark_unit=kcal/mol group=PS
  C   -0.046600534  -0.427187616  -1.916611499
  C   -0.529268233  -1.742215449  -1.671622939
  C    0.423665008  -2.559403993  -1.135434024
  S    1.915845550  -1.730750983  -0.926675812
  C    1.261458329  -0.275302731  -1.563071949
  H   -0.650766781   0.373248618  -2.312100283
  H   -1.538547387  -2.061888548  -1.878055280
  H    0.334201563  -3.595141045  -0.858605065
  H    1.864067913   0.613959876  -1.609835493
  O    0.560756102   1.388323569   1.539380244
  C    0.154815286   2.544585218   2.229523486
  O   -1.039003089   3.069704731   1.695529981
  C   -2.050520067   2.089068149   1.727640632
  O   -1.662857199   0.928649997   1.033802173
  C   -0.463312292   0.419734925   1.572654287
  H    0.928901224   3.294157843   2.106380473
  H    0.006058113   2.306508883   3.293972578
  H   -2.922623559   2.498388459   1.229512820
  H   -2.280412520   1.834515475   2.773714455
  H   -0.152408486  -0.415444468   0.958672888
  H   -0.634862324   0.106056738   2.613436895
