19
charge=0 charge_a=0 charge_b=0 selection_a=1-10 selection_b=11-19 scaling=0.90 benchmark_Eint=-3.221 benchmark_unit=kcal/mol group=PS
  C    1.312117504   0.843904098  -3.497663443
  S    1.252784224  -0.354058447  -2.127608426
  S   -0.440073011  -1.438250131  -2.517429120
  C   -1.764774417  -0.445023201  -1.758622229
  H    2.229731090   1.415600890  -3.364054741
  H    0.461813590   1.519190684  -3.459777660
  H    1.341130638   0.326166808  -4.451830612
  H   -2.682659369  -1.014058409  -1.903417392
  H   -1.860793177   0.515417626  -2.257842977
  H   -1.571853640  -0.318750069  -0.697502104
  C    0.217149414  -1.860499138   1.041196167
  O   -0.470951190  -0.629292731   1.121326947
  C    0.383449283   0.446010922   1.448001967
  H   -0.504224855  -2.618912963   0.749060991
  H    0.655045028  -2.131134543   2.008660697
  H    1.013486480  -1.822988674   0.291846008
  H   -0.227512619   1.344436828   1.495031683
  H    1.158800492   0.578755864   0.687099289
  H    0.863160003   0.289412135   2.420841780
