19
charge=0 charge_a=0 charge_b=0 selection_a=1-10 selection_b=11-19 scaling=0.95 benchmark_Eint=-3.634 benchmark_unit=kcal/mol group=PS
  C    1.312117504   0.843904098  -3.497663443
  S    1.252784224  -0.354058447  -2.127608426
  S   -0.440073011  -1.438250131  -2.517429120
  C   -1.764774417  -0.445023201  -1.758622229
  H    2.229731090   1.415600890  -3.364054741
  H    0.461813590   1.519190684  -3.459777660
  H    1.341130638   0.326166808  -4.451830612
  H   -2.682659369  -1.014058409  -1.903417392
  H   -1.860793177   0.515417626  -2.257842977
  H   -1.571853640  -0.318750069  -0.697502104
  C    0.212665467  -1.865329979   1.158383171
  O   -0.475435137  -0.634123572   1.238513951
  C    0.378965336   0.441180081   1.565188971
  H   -0.508708802  -2.623743804   0.866247995
  H    0.650561081  -2.135965384   2.125847701
  H    1.009002533  -1.827819515   0.409033012
  H   -0.231996566   1.339605987   1.612218687
  H    1.154316545   0.573925023   0.804286293
  H    0.858676056   0.284581294   2.538028784
