19
charge=0 charge_a=0 charge_b=0 selection_a=1-10 selection_b=11-19 scaling=2.00 benchmark_Eint=-0.488 benchmark_unit=kcal/mol group=PS
  C    1.312117504   0.843904098  -3.497663443
  S    1.252784224  -0.354058447  -2.127608426
  S   -0.440073011  -1.438250131  -2.517429120
  C   -1.764774417  -0.445023201  -1.758622229
  H    2.229731090   1.415600890  -3.364054741
  H    0.461813590   1.519190684  -3.459777660
  H    1.341130638   0.326166808  -4.451830612
  H   -2.682659369  -1.014058409  -1.903417392
  H   -1.860793177   0.515417626  -2.257842977
  H   -1.571853640  -0.318750069  -0.697502104
  C    0.118502564  -1.966777636   3.619310257
  O   -0.569598040  -0.735571229   3.699441037
  C    0.284802433   0.339732424   4.026116057
  H   -0.602871705  -2.725191461   3.327175081
  H    0.556398178  -2.237413041   4.586774787
  H    0.914839630  -1.929267172   2.869960098
  H   -0.326159469   1.238158330   4.073145773
  H    1.060153642   0.472477366   3.265213379
  H    0.764513153   0.183133637   4.998955870
