10
charge=0 charge_a=0 charge_b=0 selection_a=1-6 selection_b=7-10 scaling=1.25 benchmark_Eint=-1.863 benchmark_unit=kcal/mol group=PS
  S    0.398968250  -1.723774325   0.471587271
  S   -0.710057289  -1.342184864  -1.240918582
  S   -1.707929830   0.417611096  -0.766959239
  S   -0.206166631   1.848325534  -0.832481138
  S    0.901605671   1.448530524   0.875059214
  S    1.906144045  -0.298443060   0.373124083
  C   -2.739334469   1.553602220   2.930032454
  O   -2.484535913   2.724995761   2.878956180
  H   -1.955996704   0.789120313   3.065017806
  H   -3.774576739   1.177199714   2.840919616
