19
charge=0 charge_a=0 charge_b=0 selection_a=1-10 selection_b=11-19 scaling=1.10 benchmark_Eint=-3.479 benchmark_unit=kcal/mol group=PS
  C    1.312117504   0.843904098  -3.497663443
  S    1.252784224  -0.354058447  -2.127608426
  S   -0.440073011  -1.438250131  -2.517429120
  C   -1.764774417  -0.445023201  -1.758622229
  H    2.229731090   1.415600890  -3.364054741
  H    0.461813590   1.519190684  -3.459777660
  H    1.341130638   0.326166808  -4.451830612
  H   -2.682659369  -1.014058409  -1.903417392
  H   -1.860793177   0.515417626  -2.257842977
  H   -1.571853640  -0.318750069  -0.697502104
  C    0.199213624  -1.879822502   1.509944183
  O   -0.488886980  -0.648616095   1.590074963
  C    0.365513493   0.426687558   1.916749983
  H   -0.522160645  -2.638236327   1.217809007
  H    0.637109238  -2.150457907   2.477408713
  H    0.995550690  -1.842312038   0.760594024
  H   -0.245448409   1.325113464   1.963779699
  H    1.140864702   0.559432500   1.155847305
  H    0.845224213   0.270088771   2.889589796
