21
charge=0 charge_a=0 charge_b=0 selection_a=1-9 selection_b=10-21 scaling=2.00 benchmark_Eint=-0.314 benchmark_unit=kcal/mol group=PS
  C   -0.046600534  -0.427187616  -1.916611499
  C   -0.529268233  -1.742215449  -1.671622939
  C    0.423665008  -2.559403993  -1.135434024
  S    1.915845550  -1.730750983  -0.926675812
  C    1.261458329  -0.275302731  -1.563071949
  H   -0.650766781   0.373248618  -2.312100283
  H   -1.538547387  -2.061888548  -1.878055280
  H    0.334201563  -3.595141045  -0.858605065
  H    1.864067913   0.613959876  -1.609835493
  O   -0.374824875   3.195667969   3.234304728
  C   -0.780765691   4.351929618   3.924447970
  O   -1.974584066   4.877049131   3.390454465
  C   -2.986101044   3.896412549   3.422565116
  O   -2.598438176   2.735994397   2.728726657
  C   -1.398893269   2.227079325   3.267578771
  H   -0.006679753   5.101502243   3.801304957
  H   -0.929522864   4.113853283   4.988897062
  H   -3.858204536   4.305732859   2.924437304
  H   -3.215993497   3.641859875   4.468638939
  H   -1.087989463   1.391899932   2.653597372
  H   -1.570443301   1.913401138   4.308361379
