16
charge=0 charge_a=0 charge_b=0 selection_a=1-4 selection_b=5-16 scaling=0.85 benchmark_Eint=0.197 benchmark_unit=kcal/mol group=PS
  P    1.060154461   0.653291378  -1.827559193
  P   -0.884653758   0.123167844  -2.021671275
  H    0.780299328   1.835462505  -1.085677736
  H   -0.596464742  -1.060861003  -2.759095267
  B    0.530647986   0.889408962   1.323107683
  H    0.984379734   1.952781821   1.604874292
  N   -0.875505095   0.664510411   1.284010554
  H   -1.491288037   1.429963127   1.496864316
  B   -1.451133899  -0.595135614   0.939740560
  H   -2.629617768  -0.752698952   0.909767600
  N   -0.549296015  -1.662053007   0.643819784
  H   -0.931647077  -2.560761667   0.405801915
  B    0.867474283  -1.507929037   0.661816841
  H    1.595950219  -2.411692666   0.402046293
  N    1.374543414  -0.216563194   0.999548611
  H    2.370865830  -0.083418964   1.019173405
