20
charge=0 charge_a=0 charge_b=0 selection_a=1-4 selection_b=5-20 scaling=2.00 benchmark_Eint=-0.195 benchmark_unit=kcal/mol group=PS
  P   -0.216152749  -1.443976584  -2.021242346
  P    0.577235391   0.610708954  -2.013816574
  P   -1.502044518   0.232077762  -1.395195570
  P   -0.928724652   0.013114102  -3.508209384
  B    3.050790237  -0.077078575   5.427798764
  B    1.358309360  -0.144577149   5.028148610
  B    2.497194299  -1.395237559   4.462530660
  B    2.175343043   1.478058154   4.864526965
  B    4.065985025  -0.817866978   4.012097535
  H    3.370126486  -0.216885403   6.554258879
  H    0.516906012  -0.448911815   5.793180505
  H    2.329291442  -2.460900017   4.936176474
  H    1.869761779   2.190063329   5.758911795
  H    4.888121129  -1.635426772   4.257146028
  H    1.312628153  -0.941263961   3.986466277
  H    1.025085465   0.879953368   4.370450697
  H    3.073833932  -1.461977545   3.319596071
  H    2.437341159   1.982959861   3.816550854
  H    4.321061983   0.037023078   3.231749229
  H    3.499050908   0.965909333   4.906550119
