25
charge=0 charge_a=0 charge_b=0 selection_a=1-11 selection_b=12-25 scaling=1.05 benchmark_Eint=-3.268 benchmark_unit=kcal/mol group=PS
  C   -0.014569071  -0.878428899  -1.652508788
  C   -1.342224711  -0.594109323  -1.951925999
  C   -1.948757085   0.613556149  -1.642536453
  P   -1.176018352   1.947964561  -0.851005211
  C    0.414577856   1.296518120  -0.630002251
  C    0.824207316   0.031222582  -1.019333243
  H    0.379667575  -1.850296893  -1.913171401
  H   -1.928849409  -1.359348523  -2.445368495
  H   -2.990221860   0.743171306  -1.909864766
  H    1.137564405   1.935031406  -0.137972132
  H    1.841184058  -0.274254697  -0.809353419
  B    0.651254177  -2.049225394   2.241515520
  B    0.949416370  -1.813456428   3.886482280
  B   -0.731311509  -1.088942316   2.132831836
  B   -0.611241239  -2.453450969   3.286451667
  B    0.826981241  -0.445850838   2.734331314
  H    1.224014246  -2.681514414   1.430218964
  H    1.798079978  -2.225198321   4.592371274
  H   -1.442434289  -0.834491928   1.232120577
  H   -1.205799821  -3.458762091   3.441162468
  H    1.567292224   0.401178272   2.387496377
  H   -0.228610552  -2.008721114   4.494171222
  H    0.852310374  -0.491024571   4.076573988
  H   -1.496595757  -1.456346502   3.174782185
  H   -0.410757345   0.062085086   2.746723506
