23
charge=0 charge_a=0 charge_b=0 selection_a=1-11 selection_b=12-23 scaling=1.10 benchmark_Eint=-3.352 benchmark_unit=kcal/mol group=PS
  C   -0.918552392   0.970515277  -1.119726838
  C   -0.177497697   2.067839626  -0.696536404
  C    1.208618994   2.092522636  -0.694429059
  P    2.233867464   0.790862558  -1.201519941
  C    1.041658860  -0.382267521  -1.656266894
  C   -0.329929913  -0.201318446  -1.581064745
  H   -1.996853252   1.026643391  -1.078913715
  H   -0.713671467   2.940912074  -0.345864987
  H    1.700283122   2.991984171  -0.344805481
  H    1.410208220  -1.333399576  -2.019639487
  H   -0.979409481  -1.013011857  -1.883397383
  B    0.187962245  -1.865662284   1.737594224
  H    1.158038639  -2.492473920   1.452709016
  N    0.277711861  -0.525544961   2.212467441
  H    1.185540667  -0.098106437   2.269379080
  B   -0.864930474   0.258122298   2.541215505
  H   -0.762552787   1.382753037   2.916949751
  N   -2.143554260  -0.365398257   2.406641387
  H   -2.964023051   0.164446438   2.643513495
  B   -2.305059929  -1.705860827   1.948237581
  H   -3.383848649  -2.198473438   1.837022913
  N   -1.120126097  -2.428967515   1.622970427
  H   -1.208011159  -3.376600521   1.299938726
