16
charge=0 charge_a=0 charge_b=0 selection_a=1-4 selection_b=5-16 scaling=2.00 benchmark_Eint=-0.145 benchmark_unit=kcal/mol group=PS
  P   -0.585538163  -1.099448061  -1.122703735
  P    1.330390941  -0.023764147  -1.096575796
  P   -0.558842759   1.097798815  -1.135308174
  P    0.092439265  -0.019157969  -2.922391792
  B    0.744713561  -1.191721052   6.027776653
  H    1.385605036  -2.193923891   6.039132340
  N    1.368181196   0.091580853   6.033579571
  H    2.372242821   0.137169978   6.045034985
  B    0.631240518   1.313019601   6.009216335
  H    1.178816712   2.369153818   6.005296258
  N   -0.791659373   1.211320591   5.984261446
  H   -1.332860829   2.057998798   5.960170853
  B   -1.480856611  -0.037892072   5.976628022
  H   -2.668865267  -0.091995973   5.945704927
  N   -0.681530173  -1.219434243   6.002227777
  H   -1.143931972  -2.111851889   5.991031768
