25
charge=0 charge_a=0 charge_b=0 selection_a=1-11 selection_b=12-25 scaling=0.80 benchmark_Eint=0.974 benchmark_unit=kcal/mol group=PS
  C   -0.014569071  -0.878428899  -1.652508788
  C   -1.342224711  -0.594109323  -1.951925999
  C   -1.948757085   0.613556149  -1.642536453
  P   -1.176018352   1.947964561  -0.851005211
  C    0.414577856   1.296518120  -0.630002251
  C    0.824207316   0.031222582  -1.019333243
  H    0.379667575  -1.850296893  -1.913171401
  H   -1.928849409  -1.359348523  -2.445368495
  H   -2.990221860   0.743171306  -1.909864766
  H    1.137564405   1.935031406  -0.137972132
  H    1.841184058  -0.274254697  -0.809353419
  B    0.523731237  -1.715458671   1.626833609
  B    0.821893430  -1.479689705   3.271800369
  B   -0.858834449  -0.755175593   1.518149925
  B   -0.738764179  -2.119684246   2.671769756
  B    0.699458301  -0.112084115   2.119649403
  H    1.096491306  -2.347747691   0.815537053
  H    1.670557038  -1.891431598   3.977689363
  H   -1.569957229  -0.500725205   0.617438666
  H   -1.333322761  -3.124995368   2.826480557
  H    1.439769284   0.734944995   1.772814466
  H   -0.356133492  -1.674954391   3.879489311
  H    0.724787434  -0.157257848   3.461892077
  H   -1.624118697  -1.122579779   2.560100274
  H   -0.538280285   0.395851809   2.132041595
