16
charge=0 charge_a=0 charge_b=0 selection_a=1-4 selection_b=5-16 scaling=1.10 benchmark_Eint=-2.673 benchmark_unit=kcal/mol group=PS
  P    1.060154461   0.653291378  -1.827559193
  P   -0.884653758   0.123167844  -2.021671275
  H    0.780299328   1.835462505  -1.085677736
  H   -0.596464742  -1.060861003  -2.759095267
  B    0.503982253   0.688094981   2.059428940
  H    0.957714001   1.751467840   2.341195549
  N   -0.902170828   0.463196430   2.020331811
  H   -1.517953770   1.228649146   2.233185573
  B   -1.477799632  -0.796449595   1.676061817
  H   -2.656283501  -0.954012933   1.646088857
  N   -0.575961748  -1.863366988   1.380141041
  H   -0.958312810  -2.762075648   1.142123172
  B    0.840808550  -1.709243018   1.398138098
  H    1.569284486  -2.613006647   1.138367550
  N    1.347877681  -0.417877175   1.735869868
  H    2.344200097  -0.284732945   1.755494662
