25
charge=0 charge_a=0 charge_b=0 selection_a=1-11 selection_b=12-25 scaling=0.85 benchmark_Eint=-1.381 benchmark_unit=kcal/mol group=PS
  C   -0.014569071  -0.878428899  -1.652508788
  C   -1.342224711  -0.594109323  -1.951925999
  C   -1.948757085   0.613556149  -1.642536453
  P   -1.176018352   1.947964561  -0.851005211
  C    0.414577856   1.296518120  -0.630002251
  C    0.824207316   0.031222582  -1.019333243
  H    0.379667575  -1.850296893  -1.913171401
  H   -1.928849409  -1.359348523  -2.445368495
  H   -2.990221860   0.743171306  -1.909864766
  H    1.137564405   1.935031406  -0.137972132
  H    1.841184058  -0.274254697  -0.809353419
  B    0.549235825  -1.782212015   1.749769991
  B    0.847398018  -1.546443049   3.394736751
  B   -0.833329861  -0.821928937   1.641086307
  B   -0.713259591  -2.186437590   2.794706138
  B    0.724962889  -0.178837459   2.242585785
  H    1.121995894  -2.414501035   0.938473435
  H    1.696061626  -1.958184942   4.100625745
  H   -1.544452641  -0.567478549   0.740375048
  H   -1.307818173  -3.191748712   2.949416939
  H    1.465273872   0.668191651   1.895750848
  H   -0.330628904  -1.741707735   4.002425693
  H    0.750292022  -0.224011192   3.584828459
  H   -1.598614109  -1.189333123   2.683036656
  H   -0.512775697   0.329098465   2.254977977
