16
charge=0 charge_a=0 charge_b=0 selection_a=1-4 selection_b=5-16 scaling=0.95 benchmark_Eint=-2.413 benchmark_unit=kcal/mol group=PS
  P    1.060154461   0.653291378  -1.827559193
  P   -0.884653758   0.123167844  -2.021671275
  H    0.780299328   1.835462505  -1.085677736
  H   -0.596464742  -1.060861003  -2.759095267
  B    0.519981693   0.808883369   1.617636186
  H    0.973713441   1.872256228   1.899402795
  N   -0.886171388   0.583984818   1.578539057
  H   -1.501954330   1.349437534   1.791392819
  B   -1.461800192  -0.675661207   1.234269063
  H   -2.640284061  -0.833224545   1.204296103
  N   -0.559962308  -1.742578600   0.938348287
  H   -0.942313370  -2.641287260   0.700330418
  B    0.856807990  -1.588454630   0.956345344
  H    1.585283926  -2.492218259   0.696574796
  N    1.363877121  -0.297088787   1.294077114
  H    2.360199537  -0.163944557   1.313701908
