18
charge=0 charge_a=0 charge_b=0 selection_a=1-4 selection_b=5-18 scaling=1.10 benchmark_Eint=-2.226 benchmark_unit=kcal/mol group=PS
  P    0.684737307   0.208313286  -2.194724086
  P   -1.251749435   0.036789997  -1.628084304
  H    1.119591370   0.717695276  -0.941273004
  H   -1.688890089  -0.477552187  -2.882271307
  B    1.355784532  -0.697680702   2.116810398
  B    0.035999298   0.351057302   2.185654325
  B    0.948746303  -1.638113772   3.458489726
  B    1.152276285   0.137165696   3.569573564
  B   -0.166073506  -1.424168234   2.073007824
  H    2.266894988  -0.755434311   1.373898911
  H   -0.272785751   1.264752769   1.510426313
  H    1.482338525  -2.564037269   3.953846474
  H    1.872476101   0.852354565   4.167313504
  H   -0.661987203  -2.154164057   1.294379688
  H   -0.042016815   0.738251176   3.467570280
  H   -1.037853615  -0.437795036   2.330913104
  H    0.650375368  -0.761412908   4.429090442
  H   -0.347403136  -1.937715773   3.300347748
