25
charge=0 charge_a=0 charge_b=0 selection_a=1-11 selection_b=12-25 scaling=1.10 benchmark_Eint=-3.044 benchmark_unit=kcal/mol group=PS
  C   -0.014569071  -0.878428899  -1.652508788
  C   -1.342224711  -0.594109323  -1.951925999
  C   -1.948757085   0.613556149  -1.642536453
  P   -1.176018352   1.947964561  -0.851005211
  C    0.414577856   1.296518120  -0.630002251
  C    0.824207316   0.031222582  -1.019333243
  H    0.379667575  -1.850296893  -1.913171401
  H   -1.928849409  -1.359348523  -2.445368495
  H   -2.990221860   0.743171306  -1.909864766
  H    1.137564405   1.935031406  -0.137972132
  H    1.841184058  -0.274254697  -0.809353419
  B    0.676758765  -2.115978738   2.364451902
  B    0.974920958  -1.880209772   4.009418662
  B   -0.705806921  -1.155695660   2.255768218
  B   -0.585736651  -2.520204313   3.409388049
  B    0.852485829  -0.512604182   2.857267696
  H    1.249518834  -2.748267758   1.553155346
  H    1.823584566  -2.291951665   4.715307656
  H   -1.416929701  -0.901245272   1.355056959
  H   -1.180295233  -3.525515435   3.564098850
  H    1.592796812   0.334424928   2.510432759
  H   -0.203105964  -2.075474458   4.617107604
  H    0.877814962  -0.557777915   4.199510370
  H   -1.471091169  -1.523099846   3.297718567
  H   -0.385252757  -0.004668258   2.869659888
