18
charge=0 charge_a=0 charge_b=0 selection_a=1-4 selection_b=5-18 scaling=0.85 benchmark_Eint=-0.953 benchmark_unit=kcal/mol group=PS
  P    0.684737307   0.208313286  -2.194724086
  P   -1.251749435   0.036789997  -1.628084304
  H    1.119591370   0.717695276  -0.941273004
  H   -1.688890089  -0.477552187  -2.882271307
  B    1.226750817  -0.588519024   1.465899724
  B   -0.093034417   0.460218980   1.534743651
  B    0.819712588  -1.528952094   2.807579052
  B    1.023242570   0.246327374   2.918662890
  B   -0.295107221  -1.315006556   1.422097150
  H    2.137861273  -0.646272633   0.722988237
  H   -0.401819466   1.373914447   0.859515639
  H    1.353304810  -2.454875591   3.302935800
  H    1.743442386   0.961516243   3.516402830
  H   -0.791020918  -2.045002379   0.643469014
  H   -0.171050530   0.847412854   2.816659606
  H   -1.166887330  -0.328633358   1.680002430
  H    0.521341653  -0.652251230   3.778179768
  H   -0.476436851  -1.828554095   2.649437074
