16
charge=0 charge_a=0 charge_b=0 selection_a=1-4 selection_b=5-16 scaling=0.95 benchmark_Eint=-3.042 benchmark_unit=kcal/mol group=PS
  P   -0.585538163  -1.099448061  -1.122703735
  P    1.330390941  -0.023764147  -1.096575796
  P   -0.558842759   1.097798815  -1.135308174
  P    0.092439265  -0.019157969  -2.922391792
  B    0.796365910  -1.210958205   2.287051119
  H    1.437257385  -2.213161044   2.298406806
  N    1.419833545   0.072343700   2.292854037
  H    2.423895170   0.117932825   2.304309451
  B    0.682892867   1.293782448   2.268490801
  H    1.230469061   2.349916665   2.264570724
  N   -0.740007024   1.192083438   2.243535912
  H   -1.281208480   2.038761645   2.219445319
  B   -1.429204262  -0.057129225   2.235902488
  H   -2.617212918  -0.111233126   2.204979393
  N   -0.629877824  -1.238671396   2.261502243
  H   -1.092279623  -2.131089042   2.250306234
