16
charge=0 charge_a=0 charge_b=0 selection_a=1-4 selection_b=5-16 scaling=1.50 benchmark_Eint=-0.767 benchmark_unit=kcal/mol group=PS
  P   -0.585538163  -1.099448061  -1.122703735
  P    1.330390941  -0.023764147  -1.096575796
  P   -0.558842759   1.097798815  -1.135308174
  P    0.092439265  -0.019157969  -2.922391792
  B    0.769309918  -1.200881601   4.246478779
  H    1.410201393  -2.203084440   4.257834466
  N    1.392777553   0.082420304   4.252281697
  H    2.396839178   0.128009429   4.263737111
  B    0.655836875   1.303859052   4.227918461
  H    1.203413069   2.359993269   4.223998384
  N   -0.767063016   1.202160042   4.202963572
  H   -1.308264472   2.048838249   4.178872979
  B   -1.456260254  -0.047052621   4.195330148
  H   -2.644268910  -0.101156522   4.164407053
  N   -0.656933816  -1.228594792   4.220929903
  H   -1.119335615  -2.121012438   4.209733894
