23
charge=0 charge_a=0 charge_b=0 selection_a=1-11 selection_b=12-23 scaling=0.95 benchmark_Eint=-3.425 benchmark_unit=kcal/mol group=PS
  C   -0.918552392   0.970515277  -1.119726838
  C   -0.177497697   2.067839626  -0.696536404
  C    1.208618994   2.092522636  -0.694429059
  P    2.233867464   0.790862558  -1.201519941
  C    1.041658860  -0.382267521  -1.656266894
  C   -0.329929913  -0.201318446  -1.581064745
  H   -1.996853252   1.026643391  -1.078913715
  H   -0.713671467   2.940912074  -0.345864987
  H    1.700283122   2.991984171  -0.344805481
  H    1.410208220  -1.333399576  -2.019639487
  H   -0.979409481  -1.013011857  -1.883397383
  B    0.402323289  -1.631739687   1.353905572
  H    1.372399683  -2.258551323   1.069020364
  N    0.492072905  -0.291622364   1.828778789
  H    1.399901711   0.135816160   1.885690428
  B   -0.650569430   0.492044895   2.157526853
  H   -0.548191743   1.616675634   2.533261099
  N   -1.929193216  -0.131475660   2.022952735
  H   -2.749662007   0.398369035   2.259824843
  B   -2.090698885  -1.471938230   1.564548929
  H   -3.169487605  -1.964550841   1.453334261
  N   -0.905765053  -2.195044918   1.239281775
  H   -0.993650115  -3.142677924   0.916250074
