20
charge=0 charge_a=0 charge_b=0 selection_a=1-4 selection_b=5-20 scaling=0.80 benchmark_Eint=4.308 benchmark_unit=kcal/mol group=PS
  P   -0.216152749  -1.443976584  -2.021242346
  P    0.577235391   0.610708954  -2.013816574
  P   -1.502044518   0.232077762  -1.395195570
  P   -0.928724652   0.013114102  -3.508209384
  B    1.495917145  -0.062768954   1.978382948
  B   -0.196563732  -0.130267528   1.578732794
  B    0.942321207  -1.380927938   1.013114844
  B    0.620469951   1.492367775   1.415111149
  B    2.511111933  -0.803557357   0.562681719
  H    1.815253394  -0.202575782   3.104843063
  H   -1.037967080  -0.434602194   2.343764689
  H    0.774418350  -2.446590396   1.486760658
  H    0.314888687   2.204372950   2.309495979
  H    3.333248037  -1.621117151   0.807730212
  H   -0.242244939  -0.926954340   0.537050461
  H   -0.529787627   0.894262989   0.921034881
  H    1.518960840  -1.447667924  -0.129819745
  H    0.882468067   1.997269482   0.367135038
  H    2.766188891   0.051332699  -0.217666587
  H    1.944177816   0.980218954   1.457134303
