18
charge=0 charge_a=0 charge_b=0 selection_a=1-4 selection_b=5-18 scaling=1.50 benchmark_Eint=-0.845 benchmark_unit=kcal/mol group=PS
  P    0.684737307   0.208313286  -2.194724086
  P   -1.251749435   0.036789997  -1.628084304
  H    1.119591370   0.717695276  -0.941273004
  H   -1.688890089  -0.477552187  -2.882271307
  B    1.562238476  -0.872339388   3.158267476
  B    0.242453242   0.176398616   3.227111403
  B    1.155200247  -1.812772458   4.499946804
  B    1.358730229  -0.037492990   4.611030642
  B    0.040380438  -1.598826920   3.114464902
  H    2.473348932  -0.930092997   2.415355989
  H   -0.066331807   1.090094083   2.551883391
  H    1.688792469  -2.738695955   4.995303552
  H    2.078930045   0.677695879   5.208770582
  H   -0.455533259  -2.328822743   2.335836766
  H    0.164437129   0.563592490   4.509027358
  H   -0.831399671  -0.612453722   3.372370182
  H    0.856829312  -0.936071594   5.470547520
  H   -0.140949192  -2.112374459   4.341804826
