23
charge=0 charge_a=0 charge_b=0 selection_a=1-11 selection_b=12-23 scaling=0.85 benchmark_Eint=-0.021 benchmark_unit=kcal/mol group=PS
  C   -0.918552392   0.970515277  -1.119726838
  C   -0.177497697   2.067839626  -0.696536404
  C    1.208618994   2.092522636  -0.694429059
  P    2.233867464   0.790862558  -1.201519941
  C    1.041658860  -0.382267521  -1.656266894
  C   -0.329929913  -0.201318446  -1.581064745
  H   -1.996853252   1.026643391  -1.078913715
  H   -0.713671467   2.940912074  -0.345864987
  H    1.700283122   2.991984171  -0.344805481
  H    1.410208220  -1.333399576  -2.019639487
  H   -0.979409481  -1.013011857  -1.883397383
  B    0.545230652  -1.475791289   1.098113137
  H    1.515307046  -2.102602925   0.813227929
  N    0.634980268  -0.135673966   1.572986354
  H    1.542809074   0.291764558   1.629897993
  B   -0.507662067   0.647993293   1.901734418
  H   -0.405284380   1.772624032   2.277468664
  N   -1.786285853   0.024472738   1.767160300
  H   -2.606754644   0.554317433   2.004032408
  B   -1.947791522  -1.315989832   1.308756494
  H   -3.026580242  -1.808602443   1.197541826
  N   -0.762857690  -2.039096520   0.983489340
  H   -0.850742752  -2.986729526   0.660457639
