20
charge=0 charge_a=0 charge_b=0 selection_a=1-4 selection_b=5-20 scaling=1.25 benchmark_Eint=-2.102 benchmark_unit=kcal/mol group=PS
  P   -0.216152749  -1.443976584  -2.021242346
  P    0.577235391   0.610708954  -2.013816574
  P   -1.502044518   0.232077762  -1.395195570
  P   -0.928724652   0.013114102  -3.508209384
  B    2.078994554  -0.068135062   3.271913879
  B    0.386513677  -0.135633636   2.872263725
  B    1.525398616  -1.386294046   2.306645775
  B    1.203547360   1.487001667   2.708642080
  B    3.094189342  -0.808923465   1.856212650
  H    2.398330803  -0.207941890   4.398373994
  H   -0.454889671  -0.439968302   3.637295620
  H    1.357495759  -2.451956504   2.780291589
  H    0.897966096   2.199006842   3.603026910
  H    3.916325446  -1.626483259   2.101261143
  H    0.340832470  -0.932320448   1.830581392
  H    0.053289782   0.888896881   2.214565812
  H    2.102038249  -1.453034032   1.163711186
  H    1.465545476   1.991903374   1.660665969
  H    3.349266300   0.045966591   1.075864344
  H    2.527255225   0.974852846   2.750665234
