20
charge=0 charge_a=0 charge_b=0 selection_a=1-4 selection_b=5-20 scaling=1.05 benchmark_Eint=-3.383 benchmark_unit=kcal/mol group=PS
  P   -0.216152749  -1.443976584  -2.021242346
  P    0.577235391   0.610708954  -2.013816574
  P   -1.502044518   0.232077762  -1.395195570
  P   -0.928724652   0.013114102  -3.508209384
  B    1.819849039  -0.065750125   2.697011243
  B    0.127368162  -0.133248699   2.297361089
  B    1.266253101  -1.383909109   1.731743139
  B    0.944401845   1.489386604   2.133739444
  B    2.835043827  -0.806538528   1.281310014
  H    2.139185288  -0.205556953   3.823471358
  H   -0.714035186  -0.437583365   3.062392984
  H    1.098350244  -2.449571567   2.205388953
  H    0.638820581   2.201391779   3.028124274
  H    3.657179931  -1.624098322   1.526358507
  H    0.081686955  -0.929935511   1.255678756
  H   -0.205855733   0.891281818   1.639663176
  H    1.842892734  -1.450649095   0.588808550
  H    1.206399961   1.994288311   1.085763333
  H    3.090120785   0.048351528   0.500961708
  H    2.268109710   0.977237783   2.175762598
