18
charge=0 charge_a=0 charge_b=0 selection_a=1-4 selection_b=5-18 scaling=0.90 benchmark_Eint=-1.813 benchmark_unit=kcal/mol group=PS
  P    0.684737307   0.208313286  -2.194724086
  P   -1.251749435   0.036789997  -1.628084304
  H    1.119591370   0.717695276  -0.941273004
  H   -1.688890089  -0.477552187  -2.882271307
  B    1.252557560  -0.610351360   1.596081858
  B   -0.067227674   0.438386644   1.664925785
  B    0.845519331  -1.550784430   2.937761186
  B    1.049049313   0.224495038   3.048845024
  B   -0.269300478  -1.336838892   1.552279284
  H    2.163668016  -0.668104969   0.853170371
  H   -0.376012723   1.352082111   0.989697773
  H    1.379111553  -2.476707927   3.433117934
  H    1.769249129   0.939683907   3.646584964
  H   -0.765214175  -2.066834715   0.773651148
  H   -0.145243787   0.825580518   2.946841740
  H   -1.141080587  -0.350465694   1.810184564
  H    0.547148396  -0.674083566   3.908361902
  H   -0.450630108  -1.850386431   2.779619208
