18
charge=0 charge_a=0 charge_b=0 selection_a=1-4 selection_b=5-18 scaling=2.00 benchmark_Eint=-0.238 benchmark_unit=kcal/mol group=PS
  P    0.684737307   0.208313286  -2.194724086
  P   -1.251749435   0.036789997  -1.628084304
  H    1.119591370   0.717695276  -0.941273004
  H   -1.688890089  -0.477552187  -2.882271307
  B    1.820305905  -1.090662745   4.460088824
  B    0.500520671  -0.041924741   4.528932751
  B    1.413267676  -2.031095815   5.801768152
  B    1.616797658  -0.255816347   5.912851990
  B    0.298447867  -1.817150277   4.416286250
  H    2.731416361  -1.148416354   3.717177337
  H    0.191735622   0.871770726   3.853704739
  H    1.946859898  -2.957019312   6.297124900
  H    2.336997474   0.459372522   6.510591930
  H   -0.197465830  -2.547146100   3.637658114
  H    0.422504558   0.345269133   5.810848706
  H   -0.573332242  -0.830777079   4.674191530
  H    1.114896741  -1.154394951   6.772368868
  H    0.117118237  -2.330697816   5.643626174
