25
charge=0 charge_a=0 charge_b=0 selection_a=1-11 selection_b=12-25 scaling=2.00 benchmark_Eint=-0.327 benchmark_unit=kcal/mol group=PS
  C   -0.014569071  -0.878428899  -1.652508788
  C   -1.342224711  -0.594109323  -1.951925999
  C   -1.948757085   0.613556149  -1.642536453
  P   -1.176018352   1.947964561  -0.851005211
  C    0.414577856   1.296518120  -0.630002251
  C    0.824207316   0.031222582  -1.019333243
  H    0.379667575  -1.850296893  -1.913171401
  H   -1.928849409  -1.359348523  -2.445368495
  H   -2.990221860   0.743171306  -1.909864766
  H    1.137564405   1.935031406  -0.137972132
  H    1.841184058  -0.274254697  -0.809353419
  B    1.135841347  -3.317538940   4.577306782
  B    1.434003540  -3.081769974   6.222273542
  B   -0.246724339  -2.357255862   4.468623098
  B   -0.126654069  -3.721764515   5.622242929
  B    1.311568411  -1.714164384   5.070122576
  H    1.708601416  -3.949827960   3.766010226
  H    2.282667148  -3.493511867   6.928162536
  H   -0.957847119  -2.102805474   3.567911839
  H   -0.721212651  -4.727075637   5.776953730
  H    2.051879394  -0.867135274   4.723287639
  H    0.255976618  -3.277034660   6.829962484
  H    1.336897544  -1.759338117   6.412365250
  H   -1.012008587  -2.724660048   5.510573447
  H    0.073829825  -1.206228460   5.082514768
