21
charge=0 charge_a=0 charge_b=0 selection_a=1-9 selection_b=10-21 scaling=1.10 benchmark_Eint=-3.277 benchmark_unit=kcal/mol group=PS
  C   -1.270609765   2.361349590   0.228721967
  C   -2.347050626   1.431681607   0.267405589
  C   -2.435208128   0.685680170  -0.873775549
  S   -1.212479712   1.112195197  -2.000007379
  C   -0.568822159   2.299229532  -0.940602784
  H   -1.026892362   3.037552727   1.032806449
  H   -3.021348675   1.322066938   1.102227606
  H   -3.143477187  -0.088921969  -1.108834210
  H    0.291035861   2.876591369  -1.230888030
  B    2.648781808  -2.854081943   1.045443362
  H    3.533771219  -3.648653618   1.108096903
  N    2.837707262  -1.496745745   1.441605724
  H    3.741846778  -1.215884314   1.778985542
  B    1.797524305  -0.519270902   1.376724483
  H    1.987118434   0.608287826   1.709473696
  N    0.528272661  -0.950876631   0.897308550
  H   -0.215535519  -0.276378658   0.827093446
  B    0.272744245  -2.288356232   0.481253827
  H   -0.796497859  -2.620517352   0.075539964
  N    1.353952868  -3.218044842   0.570130140
  H    1.196645581  -4.168396615   0.283303226
