24
charge=0 charge_a=0 charge_b=0 selection_a=1-12 selection_b=13-24 scaling=0.95 benchmark_Eint=-4.060 benchmark_unit=kcal/mol group=PS
  S    1.083304071   0.055498295  -1.548394161
  C    2.716801464  -0.183149952  -0.795992343
  S    2.918665057   0.451100614   0.892386716
  C    1.745616435  -0.640593106   1.744266329
  S   -0.000197772  -0.461952434   1.282622571
  C    0.120801418  -1.009263599  -0.441120215
  H    3.424588933   0.362623952  -1.413484084
  H    2.981683484  -1.239709777  -0.822410603
  H    1.812228119  -0.394380700   2.800252178
  H    2.053363974  -1.677618253   1.613724575
  H   -0.890394854  -1.030156401  -0.831665440
  H    0.523118714  -2.021185467  -0.472912337
  B   -2.538914796   0.181669297  -2.635305569
  H   -2.324973739   0.046631370  -3.797715099
  N   -3.284269958  -0.789249511  -1.897918883
  H   -3.641351791  -1.592021882  -2.386462937
  B   -3.569063061  -0.656372822  -0.504410413
  H   -4.200730007  -1.477949507   0.080370561
  N   -3.048571435   0.494959995   0.154124750
  H   -3.218030667   0.603451476   1.139122518
  B   -2.291276689   1.504115438  -0.516787188
  H   -1.883223436   2.460294205   0.056460431
  N   -2.050549804   1.306534335  -1.910373486
  H   -1.497738627   1.990034507  -2.398165345
