22
charge=0 charge_a=0 charge_b=0 selection_a=1-10 selection_b=11-22 scaling=1.50 benchmark_Eint=-1.013 benchmark_unit=kcal/mol group=PS
  C   -0.396499486  -2.593349751  -2.595851190
  S   -0.117158086  -1.803260438  -0.978896255
  S   -1.655002671  -0.458740932  -0.842284579
  C   -0.979175293   1.022757043  -1.653639110
  H    0.376593416  -3.353838427  -2.699664217
  H   -0.298214754  -1.872272768  -3.402575715
  H   -1.375035911  -3.063149402  -2.626719575
  H   -1.723410827   1.807190231  -1.523297719
  H   -0.821532330   0.849471472  -2.714604853
  H   -0.052573762   1.320015772  -1.173526572
  B    1.241295813   3.417882152   2.349167339
  H    1.163319058   4.580642616   2.102461069
  N    0.177993107   2.719798945   2.989857661
  H   -0.652910182   3.228328210   3.236990582
  B    0.236148230   1.324122095   3.294754441
  H   -0.664334296   0.770256334   3.837998551
  N    1.436148290   0.635724539   2.945096148
  H    1.495201108  -0.349244973   3.136620036
  B    2.531616196   1.267092308   2.289722215
  H    3.514845572   0.665044922   1.995719132
  N    2.400698415   2.661257810   2.002122493
  H    3.164983919   3.131514088   1.549444076
