22
charge=0 charge_a=0 charge_b=0 selection_a=1-6 selection_b=7-22 scaling=1.05 benchmark_Eint=-5.093 benchmark_unit=kcal/mol group=PS
  S    1.913333964  -0.931390850  -1.781845129
  S    0.094956169  -1.733627059  -2.381196080
  S   -1.280795560  -0.550536923  -1.373074103
  S   -1.207547682   1.246736965  -2.410990653
  S    0.615630715   2.046417380  -1.819764893
  S    1.996085837   0.863098308  -2.822074203
  B   -0.460123940   0.065705600   3.112879196
  B    0.914855209  -0.170375969   2.069776066
  B   -0.074435779   1.300017040   1.971712704
  B   -0.194053487  -1.599637502   2.296975195
  B   -1.775236104   1.072259666   2.201083416
  H   -0.280436077   0.197845217   4.270917321
  H    2.034620794  -0.082062272   2.422684024
  H    0.476927113   2.284652326   2.311210151
  H    0.302652781  -2.390701478   3.023743875
  H   -2.247907607   2.020194414   2.733080182
  H    0.698901048   0.650973193   1.072240898
  H    0.742253267  -1.202159959   1.361522263
  H   -1.033141484   1.547283757   1.155461060
  H   -0.941883118  -2.011750290   1.463769811
  H   -2.490404405   0.331228656   1.613036715
  H   -1.268369426  -0.847223858   2.833622081
