19
charge=0 charge_a=0 charge_b=0 selection_a=1-3 selection_b=4-19 scaling=0.90 benchmark_Eint=-2.333 benchmark_unit=kcal/mol group=PS
  S   -0.204145569  -0.348298082  -1.924147922
  C   -1.498226475   0.203112179  -1.270376845
  S   -2.780711521   0.760203435  -0.597545605
  B    1.507071311   0.055167140   2.148512908
  B   -0.203830763  -0.233240132   2.009648439
  B    0.988724057  -1.431658825   1.444869522
  B    0.387636512   1.425023656   1.532478736
  B    2.412645421  -0.773024156   0.710233795
  H    1.984885243   0.106894708   3.225304216
  H   -0.897249560  -0.512541253   2.919126607
  H    1.007135454  -2.431405374   2.068350249
  H    0.123263453   2.217554320   2.370501144
  H    3.347143474  -1.465010063   0.939582226
  H   -0.290354386  -1.162423738   1.085435480
  H   -0.739004470   0.656051299   1.291941464
  H    1.422402694  -1.601700962   0.250120194
  H    0.446759546   1.806780452   0.404551134
  H    2.469062158  -0.015987517  -0.200407244
  H    1.753952361   1.055422596   1.440854146
