25
charge=0 charge_a=0 charge_b=0 selection_a=1-9 selection_b=10-25 scaling=1.10 benchmark_Eint=-4.488 benchmark_unit=kcal/mol group=PS
  C   -1.402880639   1.977519455  -1.125762364
  C   -2.214756878   0.811631719  -1.176045409
  C   -1.549666032  -0.267265200  -1.684532388
  S    0.068234959   0.129097754  -2.103805383
  C   -0.140219338   1.756202521  -1.595844541
  H   -1.739710729   2.932498068  -0.754544406
  H   -3.242116252   0.776220939  -0.849499638
  H   -1.920754618  -1.265517125  -1.837463598
  H    0.674014269   2.455348302  -1.671882463
  B    1.350890464  -0.854974942   2.702383913
  B    0.425575642   0.501193506   2.121572257
  B   -0.136067011  -1.166470855   1.882814191
  B    2.220801181   0.547798026   1.817290930
  B    1.104807214  -2.327507449   1.546666143
  H    1.472430724  -0.999210194   3.866760830
  H   -0.195353300   1.219623430   2.817898575
  H   -1.108288857  -1.449615637   2.486157308
  H    2.748208235   1.307491255   2.556504243
  H    0.813234860  -3.380517387   2.007321677
  H   -0.361860018  -0.016983074   1.210340449
  H    1.101735398   1.157224802   1.281396161
  H    0.015375900  -1.897738432   0.840516460
  H    2.718156108   0.382674833   0.745282441
  H    1.918119411  -2.284662813   0.684928993
  H    2.439021342  -0.827065468   2.088159733
