25
charge=0 charge_a=0 charge_b=0 selection_a=1-9 selection_b=10-25 scaling=0.95 benchmark_Eint=-4.756 benchmark_unit=kcal/mol group=PS
  C   -1.402880639   1.977519455  -1.125762364
  C   -2.214756878   0.811631719  -1.176045409
  C   -1.549666032  -0.267265200  -1.684532388
  S    0.068234959   0.129097754  -2.103805383
  C   -0.140219338   1.756202521  -1.595844541
  H   -1.739710729   2.932498068  -0.754544406
  H   -3.242116252   0.776220939  -0.849499638
  H   -1.920754618  -1.265517125  -1.837463598
  H    0.674014269   2.455348302  -1.671882463
  B    1.170704880  -0.718410787   2.338910000
  B    0.245390058   0.637757661   1.758098344
  B   -0.316252595  -1.029906700   1.519340278
  B    2.040615597   0.684362181   1.453817017
  B    0.924621630  -2.190943294   1.183192230
  H    1.292245140  -0.862646039   3.503286917
  H   -0.375538884   1.356187585   2.454424662
  H   -1.288474441  -1.313051482   2.122683395
  H    2.568022651   1.444055410   2.193030330
  H    0.633049276  -3.243953232   1.643847764
  H   -0.542045602   0.119581081   0.846866536
  H    0.921549814   1.293788957   0.917922248
  H   -0.164809684  -1.761174277   0.477042547
  H    2.537970524   0.519238988   0.381808528
  H    1.737933827  -2.148098658   0.321455080
  H    2.258835758  -0.690501313   1.724685820
