22
charge=0 charge_a=0 charge_b=0 selection_a=1-10 selection_b=11-22 scaling=1.05 benchmark_Eint=-3.385 benchmark_unit=kcal/mol group=PS
  C   -0.396499486  -2.593349751  -2.595851190
  S   -0.117158086  -1.803260438  -0.978896255
  S   -1.655002671  -0.458740932  -0.842284579
  C   -0.979175293   1.022757043  -1.653639110
  H    0.376593416  -3.353838427  -2.699664217
  H   -0.298214754  -1.872272768  -3.402575715
  H   -1.375035911  -3.063149402  -2.626719575
  H   -1.723410827   1.807190231  -1.523297719
  H   -0.821532330   0.849471472  -2.714604853
  H   -0.052573762   1.320015772  -1.173526572
  B    0.725590706   2.695879304   1.403159971
  H    0.647613951   3.858639768   1.156453701
  N   -0.337712000   1.997796097   2.043850293
  H   -1.168615289   2.506325362   2.290983214
  B   -0.279556877   0.602119247   2.348747073
  H   -1.180039403   0.048253486   2.891991183
  N    0.920443183  -0.086278309   1.999088780
  H    0.979496001  -1.071247821   2.190612668
  B    2.015911089   0.545089460   1.343714847
  H    2.999140465  -0.056957926   1.049711764
  N    1.884993308   1.939254962   1.056115125
  H    2.649278812   2.409511240   0.603436708
