22
charge=0 charge_a=0 charge_b=0 selection_a=1-6 selection_b=7-22 scaling=1.50 benchmark_Eint=-1.711 benchmark_unit=kcal/mol group=PS
  S    1.913333964  -0.931390850  -1.781845129
  S    0.094956169  -1.733627059  -2.381196080
  S   -1.280795560  -0.550536923  -1.373074103
  S   -1.207547682   1.246736965  -2.410990653
  S    0.615630715   2.046417380  -1.819764893
  S    1.996085837   0.863098308  -2.822074203
  B   -0.671489754   0.053843588   4.480858065
  B    0.703489395  -0.182237981   3.437754935
  B   -0.285801593   1.288155028   3.339691573
  B   -0.405419301  -1.611499514   3.664954064
  B   -1.986601918   1.060397654   3.569062285
  H   -0.491801891   0.185983205   5.638896190
  H    1.823254980  -0.093924284   3.790662893
  H    0.265561299   2.272790314   3.679189020
  H    0.091286967  -2.402563490   4.391722744
  H   -2.459273421   2.008332402   4.101059051
  H    0.487535234   0.639111181   2.440219767
  H    0.530887453  -1.214021971   2.729501132
  H   -1.244507298   1.535421745   2.523439929
  H   -1.153248932  -2.023612302   2.831748680
  H   -2.701770219   0.319366644   2.981015584
  H   -1.479735240  -0.859085870   4.201600950
