21
charge=0 charge_a=0 charge_b=0 selection_a=1-9 selection_b=10-21 scaling=2.00 benchmark_Eint=-0.370 benchmark_unit=kcal/mol group=PS
  C   -1.270609765   2.361349590   0.228721967
  C   -2.347050626   1.431681607   0.267405589
  C   -2.435208128   0.685680170  -0.873775549
  S   -1.212479712   1.112195197  -2.000007379
  C   -0.568822159   2.299229532  -0.940602784
  H   -1.026892362   3.037552727   1.032806449
  H   -3.021348675   1.322066938   1.102227606
  H   -3.143477187  -0.088921969  -1.108834210
  H    0.291035861   2.876591369  -1.230888030
  B    4.067865046  -4.412910387   1.935512508
  H    4.952854457  -5.207482062   1.998166049
  N    4.256790500  -3.055574189   2.331674870
  H    5.160930016  -2.774712758   2.669054688
  B    3.216607543  -2.078099346   2.266793629
  H    3.406201672  -0.950540618   2.599542842
  N    1.947355899  -2.509705075   1.787377696
  H    1.203547719  -1.835207102   1.717162592
  B    1.691827483  -3.847184676   1.371322973
  H    0.622585379  -4.179345796   0.965609110
  N    2.773036106  -4.776873286   1.460199286
  H    2.615728819  -5.727225059   1.173372372
