21
charge=0 charge_a=0 charge_b=0 selection_a=1-9 selection_b=10-21 scaling=0.90 benchmark_Eint=-2.998 benchmark_unit=kcal/mol group=PS
  C   -1.270609765   2.361349590   0.228721967
  C   -2.347050626   1.431681607   0.267405589
  C   -2.435208128   0.685680170  -0.873775549
  S   -1.212479712   1.112195197  -2.000007379
  C   -0.568822159   2.299229532  -0.940602784
  H   -1.026892362   3.037552727   1.032806449
  H   -3.021348675   1.322066938   1.102227606
  H   -3.143477187  -0.088921969  -1.108834210
  H    0.291035861   2.876591369  -1.230888030
  B    2.333429978  -2.507675623   0.847650218
  H    3.218419389  -3.302247298   0.910303759
  N    2.522355432  -1.150339425   1.243812580
  H    3.426494948  -0.869477994   1.581192398
  B    1.482172475  -0.172864582   1.178931339
  H    1.671766604   0.954694146   1.511680552
  N    0.212920831  -0.604470311   0.699515406
  H   -0.530887349   0.070027662   0.629300302
  B   -0.042607585  -1.941949912   0.283460683
  H   -1.111849689  -2.274111032  -0.122253180
  N    1.038601038  -2.871638522   0.372336996
  H    0.881293751  -3.821990295   0.085510082
