25
charge=0 charge_a=0 charge_b=0 selection_a=1-9 selection_b=10-25 scaling=1.50 benchmark_Eint=-1.631 benchmark_unit=kcal/mol group=PS
  C   -1.402880639   1.977519455  -1.125762364
  C   -2.214756878   0.811631719  -1.176045409
  C   -1.549666032  -0.267265200  -1.684532388
  S    0.068234959   0.129097754  -2.103805383
  C   -0.140219338   1.756202521  -1.595844541
  H   -1.739710729   2.932498068  -0.754544406
  H   -3.242116252   0.776220939  -0.849499638
  H   -1.920754618  -1.265517125  -1.837463598
  H    0.674014269   2.455348302  -1.671882463
  B    1.831385356  -1.219146022   3.671647679
  B    0.906070534   0.137022426   3.090836023
  B    0.344427881  -1.530641935   2.852077957
  B    2.701296073   0.183626946   2.786554696
  B    1.585302106  -2.691678529   2.515929909
  H    1.952925616  -1.363381274   4.836024596
  H    0.285141592   0.855452350   3.787162341
  H   -0.627793965  -1.813786717   3.455421074
  H    3.228703127   0.943320175   3.525768009
  H    1.293729752  -3.744688467   2.976585443
  H    0.118634874  -0.381154154   2.179604215
  H    1.582230290   0.793053722   2.250659927
  H    0.495870792  -2.261909512   1.809780226
  H    3.198651000   0.018503753   1.714546207
  H    2.398614303  -2.648833893   1.654192759
  H    2.919516234  -1.191236548   3.057423499
