24
charge=0 charge_a=0 charge_b=0 selection_a=1-12 selection_b=13-24 scaling=1.05 benchmark_Eint=-4.137 benchmark_unit=kcal/mol group=PS
  S    1.083304071   0.055498295  -1.548394161
  C    2.716801464  -0.183149952  -0.795992343
  S    2.918665057   0.451100614   0.892386716
  C    1.745616435  -0.640593106   1.744266329
  S   -0.000197772  -0.461952434   1.282622571
  C    0.120801418  -1.009263599  -0.441120215
  H    3.424588933   0.362623952  -1.413484084
  H    2.981683484  -1.239709777  -0.822410603
  H    1.812228119  -0.394380700   2.800252178
  H    2.053363974  -1.677618253   1.613724575
  H   -0.890394854  -1.030156401  -0.831665440
  H    0.523118714  -2.021185467  -0.472912337
  B   -2.799477124   0.214738677  -2.723140009
  H   -2.585536067   0.079700750  -3.885549539
  N   -3.544832286  -0.756180131  -1.985753323
  H   -3.901914119  -1.558952502  -2.474297377
  B   -3.829625389  -0.623303442  -0.592244853
  H   -4.461292335  -1.444880127  -0.007463879
  N   -3.309133763   0.528029375   0.066290310
  H   -3.478592995   0.636520856   1.051288078
  B   -2.551839017   1.537184818  -0.604621628
  H   -2.143785764   2.493363585  -0.031374009
  N   -2.311112132   1.339603715  -1.998207926
  H   -1.758300955   2.023103887  -2.485999785
