22
charge=0 charge_a=0 charge_b=0 selection_a=1-10 selection_b=11-22 scaling=2.00 benchmark_Eint=-0.242 benchmark_unit=kcal/mol group=PS
  C   -0.396499486  -2.593349751  -2.595851190
  S   -0.117158086  -1.803260438  -0.978896255
  S   -1.655002671  -0.458740932  -0.842284579
  C   -0.979175293   1.022757043  -1.653639110
  H    0.376593416  -3.353838427  -2.699664217
  H   -0.298214754  -1.872272768  -3.402575715
  H   -1.375035911  -3.063149402  -2.626719575
  H   -1.723410827   1.807190231  -1.523297719
  H   -0.821532330   0.849471472  -2.714604853
  H   -0.052573762   1.320015772  -1.173526572
  B    1.814301488   4.220107539   3.400286637
  H    1.736324733   5.382868003   3.153580367
  N    0.750998782   3.522024332   4.040976959
  H   -0.079904507   4.030553597   4.288109880
  B    0.809153905   2.126347482   4.345873739
  H   -0.091328621   1.572481721   4.889117849
  N    2.009153965   1.437949926   3.996215446
  H    2.068206783   0.452980414   4.187739334
  B    3.104621871   2.069317695   3.340841513
  H    4.087851247   1.467270309   3.046838430
  N    2.973704090   3.463483197   3.053241791
  H    3.737989594   3.933739475   2.600563374
