22
charge=0 charge_a=0 charge_b=0 selection_a=1-6 selection_b=7-22 scaling=0.95 benchmark_Eint=-4.798 benchmark_unit=kcal/mol group=PS
  S    1.913333964  -0.931390850  -1.781845129
  S    0.094956169  -1.733627059  -2.381196080
  S   -1.280795560  -0.550536923  -1.373074103
  S   -1.207547682   1.246736965  -2.410990653
  S    0.615630715   2.046417380  -1.819764893
  S    1.996085837   0.863098308  -2.822074203
  B   -0.413153758   0.068341602   2.808883892
  B    0.961825391  -0.167739967   1.765780762
  B   -0.027465597   1.302653042   1.667717400
  B   -0.147083305  -1.597001500   1.992979891
  B   -1.728265922   1.074895668   1.897088112
  H   -0.233465895   0.200481219   3.966922017
  H    2.081590976  -0.079426270   2.118688720
  H    0.523897295   2.287288328   2.007214847
  H    0.349622963  -2.388065476   2.719748571
  H   -2.200937425   2.022830416   2.429084878
  H    0.745871230   0.653609195   0.768245594
  H    0.789223449  -1.199523957   1.057526959
  H   -0.986171302   1.549919759   0.851465756
  H   -0.894912936  -2.009114288   1.159774507
  H   -2.443434223   0.333864658   1.309041411
  H   -1.221399244  -0.844587856   2.529626777
