24
charge=0 charge_a=0 charge_b=0 selection_a=1-12 selection_b=13-24 scaling=0.80 benchmark_Eint=0.972 benchmark_unit=kcal/mol group=PS
  S    1.083304071   0.055498295  -1.548394161
  C    2.716801464  -0.183149952  -0.795992343
  S    2.918665057   0.451100614   0.892386716
  C    1.745616435  -0.640593106   1.744266329
  S   -0.000197772  -0.461952434   1.282622571
  C    0.120801418  -1.009263599  -0.441120215
  H    3.424588933   0.362623952  -1.413484084
  H    2.981683484  -1.239709777  -0.822410603
  H    1.812228119  -0.394380700   2.800252178
  H    2.053363974  -1.677618253   1.613724575
  H   -0.890394854  -1.030156401  -0.831665440
  H    0.523118714  -2.021185467  -0.472912337
  B   -2.148071305   0.132065226  -2.503553909
  H   -1.934130248  -0.002972701  -3.665963439
  N   -2.893426467  -0.838853582  -1.766167223
  H   -3.250508300  -1.641625953  -2.254711277
  B   -3.178219570  -0.705976893  -0.372658753
  H   -3.809886516  -1.527553578   0.212122221
  N   -2.657727944   0.445355924   0.285876410
  H   -2.827187176   0.553847405   1.270874178
  B   -1.900433198   1.454511367  -0.385035528
  H   -1.492379945   2.410690134   0.188212091
  N   -1.659706313   1.256930264  -1.778621826
  H   -1.106895136   1.940430436  -2.266413685
