22
charge=0 charge_a=0 charge_b=0 selection_a=1-6 selection_b=7-22 scaling=1.25 benchmark_Eint=-3.467 benchmark_unit=kcal/mol group=PS
  S    1.913333964  -0.931390850  -1.781845129
  S    0.094956169  -1.733627059  -2.381196080
  S   -1.280795560  -0.550536923  -1.373074103
  S   -1.207547682   1.246736965  -2.410990653
  S    0.615630715   2.046417380  -1.819764893
  S    1.996085837   0.863098308  -2.822074203
  B   -0.554064302   0.060433595   3.720869805
  B    0.820914847  -0.175647974   2.677766675
  B   -0.168376141   1.294745035   2.579703313
  B   -0.287993849  -1.604909507   2.904965804
  B   -1.869176466   1.066987661   2.809074025
  H   -0.374376439   0.192573212   4.878907930
  H    1.940680432  -0.087334277   3.030674633
  H    0.382986751   2.279380321   2.919200760
  H    0.208712419  -2.395973483   3.631734484
  H   -2.341847969   2.014922409   3.341070791
  H    0.604960686   0.645701188   1.680231507
  H    0.648312905  -1.207431964   1.969512872
  H   -1.127081846   1.542011752   1.763451669
  H   -1.035823480  -2.017022295   2.071760420
  H   -2.584344767   0.325956651   2.221027324
  H   -1.362309788  -0.852495863   3.441612690
