22
charge=0 charge_a=0 charge_b=0 selection_a=1-10 selection_b=11-22 scaling=0.85 benchmark_Eint=-0.950 benchmark_unit=kcal/mol group=PS
  C   -0.396499486  -2.593349751  -2.595851190
  S   -0.117158086  -1.803260438  -0.978896255
  S   -1.655002671  -0.458740932  -0.842284579
  C   -0.979175293   1.022757043  -1.653639110
  H    0.376593416  -3.353838427  -2.699664217
  H   -0.298214754  -1.872272768  -3.402575715
  H   -1.375035911  -3.063149402  -2.626719575
  H   -1.723410827   1.807190231  -1.523297719
  H   -0.821532330   0.849471472  -2.714604853
  H   -0.052573762   1.320015772  -1.173526572
  B    0.496388437   2.374989149   0.982712252
  H    0.418411682   3.537749613   0.736005982
  N   -0.566914269   1.676905942   1.623402574
  H   -1.397817558   2.185435207   1.870535495
  B   -0.508759146   0.281229092   1.928299354
  H   -1.409241672  -0.272636669   2.471543464
  N    0.691240914  -0.407168464   1.578641061
  H    0.750293732  -1.392137976   1.770164949
  B    1.786708820   0.224199305   0.923267128
  H    2.769938196  -0.377848081   0.629264045
  N    1.655791039   1.618364807   0.635667406
  H    2.420076543   2.088621085   0.182988989
