24
charge=0 charge_a=0 charge_b=0 selection_a=1-12 selection_b=13-24 scaling=0.85 benchmark_Eint=-1.842 benchmark_unit=kcal/mol group=PS
  S    1.083304071   0.055498295  -1.548394161
  C    2.716801464  -0.183149952  -0.795992343
  S    2.918665057   0.451100614   0.892386716
  C    1.745616435  -0.640593106   1.744266329
  S   -0.000197772  -0.461952434   1.282622571
  C    0.120801418  -1.009263599  -0.441120215
  H    3.424588933   0.362623952  -1.413484084
  H    2.981683484  -1.239709777  -0.822410603
  H    1.812228119  -0.394380700   2.800252178
  H    2.053363974  -1.677618253   1.613724575
  H   -0.890394854  -1.030156401  -0.831665440
  H    0.523118714  -2.021185467  -0.472912337
  B   -2.278352469   0.148599916  -2.547471129
  H   -2.064411412   0.013561989  -3.709880659
  N   -3.023707631  -0.822318892  -1.810084443
  H   -3.380789464  -1.625091263  -2.298628497
  B   -3.308500734  -0.689442203  -0.416575973
  H   -3.940167680  -1.511018888   0.168205001
  N   -2.788009108   0.461890614   0.241959190
  H   -2.957468340   0.570382095   1.226956958
  B   -2.030714362   1.471046057  -0.428952748
  H   -1.622661109   2.427224824   0.144294871
  N   -1.789987477   1.273464954  -1.822539046
  H   -1.237176300   1.956965126  -2.310330905
