25
charge=0 charge_a=0 charge_b=0 selection_a=1-9 selection_b=10-25 scaling=1.25 benchmark_Eint=-3.202 benchmark_unit=kcal/mol group=PS
  C   -1.402880639   1.977519455  -1.125762364
  C   -2.214756878   0.811631719  -1.176045409
  C   -1.549666032  -0.267265200  -1.684532388
  S    0.068234959   0.129097754  -2.103805383
  C   -0.140219338   1.756202521  -1.595844541
  H   -1.739710729   2.932498068  -0.754544406
  H   -3.242116252   0.776220939  -0.849499638
  H   -1.920754618  -1.265517125  -1.837463598
  H    0.674014269   2.455348302  -1.671882463
  B    1.531076048  -0.991539097   3.065857825
  B    0.605761226   0.364629351   2.485046169
  B    0.044118573  -1.303035010   2.246288103
  B    2.400986765   0.411233871   2.180764842
  B    1.284992798  -2.464071604   1.910140055
  H    1.652616308  -1.135774349   4.230234742
  H   -0.015167716   1.083059275   3.181372487
  H   -0.928103273  -1.586179792   2.849631220
  H    2.928393819   1.170927100   2.919978155
  H    0.993420444  -3.517081542   2.370795589
  H   -0.181674434  -0.153547229   1.573814361
  H    1.281920982   1.020660647   1.644870073
  H    0.195561484  -2.034302587   1.203990372
  H    2.898341692   0.246110678   1.108756353
  H    2.098304995  -2.421226968   1.048402905
  H    2.619206926  -0.963629623   2.451633645
