19
charge=0 charge_a=0 charge_b=0 selection_a=1-3 selection_b=4-19 scaling=0.95 benchmark_Eint=-2.954 benchmark_unit=kcal/mol group=PS
  S   -0.204145569  -0.348298082  -1.924147922
  C   -1.498226475   0.203112179  -1.270376845
  S   -2.780711521   0.760203435  -0.597545605
  B    1.605447909   0.040023604   2.258914128
  B   -0.105454165  -0.248383668   2.120049659
  B    1.087100655  -1.446802361   1.555270742
  B    0.486013110   1.409880120   1.642879956
  B    2.511022019  -0.788167692   0.820635015
  H    2.083261841   0.091751172   3.335705436
  H   -0.798872962  -0.527684789   3.029527827
  H    1.105512052  -2.446548910   2.178751469
  H    0.221640051   2.202410784   2.480902364
  H    3.445520072  -1.480153599   1.049983446
  H   -0.191977788  -1.177567274   1.195836700
  H   -0.640627872   0.640907763   1.402342684
  H    1.520779292  -1.616844498   0.360521414
  H    0.545136144   1.791636916   0.514952354
  H    2.567438756  -0.031131053  -0.090006024
  H    1.852328959   1.040279060   1.551255366
