19
charge=0 charge_a=0 charge_b=0 selection_a=1-3 selection_b=4-19 scaling=1.25 benchmark_Eint=-1.887 benchmark_unit=kcal/mol group=PS
  S   -0.204145569  -0.348298082  -1.924147922
  C   -1.498226475   0.203112179  -1.270376845
  S   -2.780711521   0.760203435  -0.597545605
  B    2.195707493  -0.050837617   2.921321452
  B    0.484805419  -0.339244889   2.782456983
  B    1.677360239  -1.537663582   2.217678066
  B    1.076272694   1.319018899   2.305287280
  B    3.101281603  -0.879028913   1.483042339
  H    2.673521425   0.000889951   3.998112760
  H   -0.208613378  -0.618546010   3.691935151
  H    1.695771636  -2.537410131   2.841158793
  H    0.811899635   2.111549563   3.143309688
  H    4.035779656  -1.571014820   1.712390770
  H    0.398281796  -1.268428495   1.858244024
  H   -0.050368288   0.550046542   2.064750008
  H    2.111038876  -1.707705719   1.022928738
  H    1.135395728   1.700775695   1.177359678
  H    3.157698340  -0.121992274   0.572401300
  H    2.442588543   0.949417839   2.213662690
