22
charge=0 charge_a=0 charge_b=0 selection_a=1-6 selection_b=7-22 scaling=0.80 benchmark_Eint=2.131 benchmark_unit=kcal/mol group=PS
  S    1.913333964  -0.931390850  -1.781845129
  S    0.094956169  -1.733627059  -2.381196080
  S   -1.280795560  -0.550536923  -1.373074103
  S   -1.207547682   1.246736965  -2.410990653
  S    0.615630715   2.046417380  -1.819764893
  S    1.996085837   0.863098308  -2.822074203
  B   -0.342698487   0.072295606   2.352890935
  B    1.032280662  -0.163785963   1.309787805
  B    0.042989674   1.306607046   1.211724443
  B   -0.076628034  -1.593047496   1.536986934
  B   -1.657810651   1.078849672   1.441095155
  H   -0.163010624   0.204435223   3.510929060
  H    2.152046247  -0.075472266   1.662695763
  H    0.594352566   2.291242332   1.551221890
  H    0.420078234  -2.384111472   2.263755614
  H   -2.130482154   2.026784420   1.973091921
  H    0.816326501   0.657563199   0.312252637
  H    0.859678720  -1.195569953   0.601534002
  H   -0.915716031   1.553873763   0.395472799
  H   -0.824457665  -2.005160284   0.703781550
  H   -2.372978952   0.337818662   0.853048454
  H   -1.150943973  -0.840633852   2.073633820
