17
charge=0 charge_a=0 charge_b=0 selection_a=1-6 selection_b=7-17 scaling=1.10 benchmark_Eint=-3.583 benchmark_unit=kcal/mol group=PS
  P   -2.201631566  -0.622016546  -0.675044910
  P   -0.840242135  -1.773844466   0.687828359
  H   -2.995585354  -1.759658083  -0.979935425
  H   -1.399084387  -0.791593404  -1.830756615
  H   -1.870530117  -2.002838825   1.637233211
  H   -0.363722322  -0.632247899   1.375283804
  C    2.779626950   0.043470608   0.540072668
  C    2.256763650   0.070800525  -0.748412576
  C    1.339675868   1.018805846  -1.174830888
  P    0.690013729   2.299899550  -0.202666903
  C    1.515180400   1.993971440   1.291411425
  C    2.422909926   0.969405194   1.513927656
  H    3.487654625  -0.732132052   0.795411979
  H    2.582021117  -0.689856141  -1.447091756
  H    0.989312096   0.961185319  -2.197767366
  H    1.294980055   2.664405715   2.112954807
  H    2.874508633   0.878510302   2.494159567
