17
charge=0 charge_a=0 charge_b=0 selection_a=1-6 selection_b=7-17 scaling=0.90 benchmark_Eint=-2.951 benchmark_unit=kcal/mol group=PS
  P   -2.201631566  -0.622016546  -0.675044910
  P   -0.840242135  -1.773844466   0.687828359
  H   -2.995585354  -1.759658083  -0.979935425
  H   -1.399084387  -0.791593404  -1.830756615
  H   -1.870530117  -2.002838825   1.637233211
  H   -0.363722322  -0.632247899   1.375283804
  C    2.353027574  -0.292775742   0.523622252
  C    1.830164274  -0.265445825  -0.764862992
  C    0.913076492   0.682559496  -1.191281304
  P    0.263414353   1.963653200  -0.219117319
  C    1.088581024   1.657725090   1.274961009
  C    1.996310550   0.633158844   1.497477240
  H    3.061055249  -1.068378402   0.778961563
  H    2.155421741  -1.026102491  -1.463542172
  H    0.562712720   0.624938969  -2.214217782
  H    0.868380679   2.328159365   2.096504391
  H    2.447909257   0.542263952   2.477709151
