8
charge=0 charge_a=0 charge_b=0 selection_a=1-4 selection_b=5-8 scaling=1.25 benchmark_Eint=-2.338 benchmark_unit=kcal/mol group=PS
  P    0.015439613  -1.719053372  -1.353083200
  P    0.095573502   0.322416567  -2.166579880
  P   -1.753698856  -0.418371227  -1.235505873
  P   -1.106428835  -1.220533976  -3.184842461
  P    0.204732263  -0.008639441   3.005640197
  P    0.264832713   2.035433657   2.197011253
  P    2.044456757   0.750030808   2.070043496
  P    1.397167402   1.541866904   4.023628115
