22
charge=0 charge_a=0 charge_b=0 selection_a=1-11 selection_b=12-22 scaling=1.25 benchmark_Eint=-1.532 benchmark_unit=kcal/mol group=PS
  C   -2.522653513   3.409245501   1.712147932
  C   -1.474139873   4.118169943   1.135673418
  C   -0.406499134   3.506992111   0.495897339
  P   -0.198562152   1.796003135   0.308159284
  C   -1.623660168   1.218606599   1.106671446
  C   -2.589556703   2.019906473   1.695399032
  H   -3.318468200   3.960929004   2.192995552
  H   -1.497335819   5.199671916   1.191921817
  H    0.364895624   4.140942778   0.076214506
  H   -1.752441427   0.144597261   1.138132665
  H   -3.440989927   1.544702099   2.167303250
  C    2.992211588  -4.328429022  -1.473390237
  C    3.042728751  -2.938331999  -1.481850697
  C    2.042000760  -2.137294819  -0.954125404
  P    0.588388354  -2.715881853  -0.209721335
  C    0.823889952  -4.427644631  -0.352855380
  C    1.926371393  -5.038415764  -0.930992272
  H    3.815328132  -4.879863125  -1.906153990
  H    3.909468149  -2.462272929  -1.924095416
  H    2.160108108  -1.062658330  -1.001639580
  H    0.041251182  -5.062465615   0.044075062
  H    1.964153905  -6.120461801  -0.964197849
