22
charge=0 charge_a=0 charge_b=0 selection_a=1-11 selection_b=12-22 scaling=0.85 benchmark_Eint=-0.376 benchmark_unit=kcal/mol group=PS
  C   -2.522653513   3.409245501   1.712147932
  C   -1.474139873   4.118169943   1.135673418
  C   -0.406499134   3.506992111   0.495897339
  P   -0.198562152   1.796003135   0.308159284
  C   -1.623660168   1.218606599   1.106671446
  C   -2.589556703   2.019906473   1.695399032
  H   -3.318468200   3.960929004   2.192995552
  H   -1.497335819   5.199671916   1.191921817
  H    0.364895624   4.140942778   0.076214506
  H   -1.752441427   0.144597261   1.138132665
  H   -3.440989927   1.544702099   2.167303250
  C    2.454027727  -3.226177019  -1.156099736
  C    2.504544890  -1.836079996  -1.164560196
  C    1.503816899  -1.035042816  -0.636834903
  P    0.050204493  -1.613629850   0.107569166
  C    0.285706091  -3.325392628  -0.035564879
  C    1.388187532  -3.936163761  -0.613701771
  H    3.277144271  -3.777611122  -1.588863489
  H    3.371284288  -1.360020926  -1.606804915
  H    1.621924247   0.039593673  -0.684349079
  H   -0.496932679  -3.960213612   0.361365563
  H    1.425970044  -5.018209798  -0.646907348
