22
charge=0 charge_a=0 charge_b=0 selection_a=1-11 selection_b=12-22 scaling=1.50 benchmark_Eint=-0.684 benchmark_unit=kcal/mol group=PS
  C   -2.522653513   3.409245501   1.712147932
  C   -1.474139873   4.118169943   1.135673418
  C   -0.406499134   3.506992111   0.495897339
  P   -0.198562152   1.796003135   0.308159284
  C   -1.623660168   1.218606599   1.106671446
  C   -2.589556703   2.019906473   1.695399032
  H   -3.318468200   3.960929004   2.192995552
  H   -1.497335819   5.199671916   1.191921817
  H    0.364895624   4.140942778   0.076214506
  H   -1.752441427   0.144597261   1.138132665
  H   -3.440989927   1.544702099   2.167303250
  C    3.328576502  -5.017336525  -1.671696799
  C    3.379093665  -3.627239502  -1.680157259
  C    2.378365674  -2.826202322  -1.152431966
  P    0.924753268  -3.404789356  -0.408027897
  C    1.160254866  -5.116552134  -0.551161942
  C    2.262736307  -5.727323267  -1.129298834
  H    4.151693046  -5.568770628  -2.104460552
  H    4.245833063  -3.151180432  -2.122401978
  H    2.496473022  -1.751565833  -1.199946142
  H    0.377616096  -5.751373118  -0.154231500
  H    2.300518819  -6.809369304  -1.162504411
