8
charge=0 charge_a=0 charge_b=0 selection_a=1-4 selection_b=5-8 scaling=1.10 benchmark_Eint=-3.952 benchmark_unit=kcal/mol group=PS
  P    0.015439613  -1.719053372  -1.353083200
  P    0.095573502   0.322416567  -2.166579880
  P   -1.753698856  -0.418371227  -1.235505873
  P   -1.106428835  -1.220533976  -3.184842461
  P    0.030421079  -0.201111929   2.502193450
  P    0.090521529   1.842961169   1.693564506
  P    1.870145573   0.557558320   1.566596749
  P    1.222856218   1.349394416   3.520181368
