17
charge=0 charge_a=0 charge_b=0 selection_a=1-6 selection_b=7-17 scaling=0.80 benchmark_Eint=1.289 benchmark_unit=kcal/mol group=PS
  P   -2.201631566  -0.622016546  -0.675044910
  P   -0.840242135  -1.773844466   0.687828359
  H   -2.995585354  -1.759658083  -0.979935425
  H   -1.399084387  -0.791593404  -1.830756615
  H   -1.870530117  -2.002838825   1.637233211
  H   -0.363722322  -0.632247899   1.375283804
  C    2.139727886  -0.460898917   0.515397045
  C    1.616864586  -0.433569000  -0.773088199
  C    0.699776804   0.514436321  -1.199506511
  P    0.050114665   1.795530025  -0.227342526
  C    0.875281336   1.489601915   1.266735802
  C    1.783010862   0.465035669   1.489252033
  H    2.847755561  -1.236501577   0.770736356
  H    1.942122053  -1.194225666  -1.471767379
  H    0.349413032   0.456815794  -2.222442989
  H    0.655080991   2.160036190   2.088279184
  H    2.234609569   0.374140777   2.469483944
