8
charge=0 charge_a=0 charge_b=0 selection_a=1-4 selection_b=5-8 scaling=0.85 benchmark_Eint=1.972 benchmark_unit=kcal/mol group=PS
  P    0.015439613  -1.719053372  -1.353083200
  P    0.095573502   0.322416567  -2.166579880
  P   -1.753698856  -0.418371227  -1.235505873
  P   -1.106428835  -1.220533976  -3.184842461
  P   -0.260097561  -0.521899409   1.663115538
  P   -0.199997111   1.522173689   0.854486594
  P    1.579626933   0.236770840   0.727518837
  P    0.932337578   1.028606936   2.681103456
