17
charge=0 charge_a=0 charge_b=0 selection_a=1-6 selection_b=7-17 scaling=0.95 benchmark_Eint=-3.673 benchmark_unit=kcal/mol group=PS
  P   -2.201631566  -0.622016546  -0.675044910
  P   -0.840242135  -1.773844466   0.687828359
  H   -2.995585354  -1.759658083  -0.979935425
  H   -1.399084387  -0.791593404  -1.830756615
  H   -1.870530117  -2.002838825   1.637233211
  H   -0.363722322  -0.632247899   1.375283804
  C    2.459677418  -0.208714155   0.527734856
  C    1.936814118  -0.181384238  -0.760750388
  C    1.019726336   0.766621083  -1.187168700
  P    0.370064197   2.047714787  -0.215004715
  C    1.195230868   1.741786677   1.279073613
  C    2.102960394   0.717220431   1.501589844
  H    3.167705093  -0.984316815   0.783074167
  H    2.262071585  -0.942040904  -1.459429568
  H    0.669362564   0.709000556  -2.210105178
  H    0.975030523   2.412220952   2.100616995
  H    2.554559101   0.626325539   2.481821755
