17
charge=0 charge_a=0 charge_b=0 selection_a=1-6 selection_b=7-17 scaling=2.00 benchmark_Eint=-0.319 benchmark_unit=kcal/mol group=PS
  P   -2.201631566  -0.622016546  -0.675044910
  P   -0.840242135  -1.773844466   0.687828359
  H   -2.995585354  -1.759658083  -0.979935425
  H   -1.399084387  -0.791593404  -1.830756615
  H   -1.870530117  -2.002838825   1.637233211
  H   -0.363722322  -0.632247899   1.375283804
  C    4.699324143   1.556579184   0.614099537
  C    4.176460843   1.583909101  -0.674385707
  C    3.259373061   2.531914422  -1.100804019
  P    2.609710922   3.813008126  -0.128640034
  C    3.434877593   3.507080016   1.365438294
  C    4.342607119   2.482513770   1.587954525
  H    5.407351818   0.780976524   0.869438848
  H    4.501718310   0.823252435  -1.373064887
  H    2.909009289   2.474293895  -2.123740497
  H    3.214677248   4.177514291   2.186981676
  H    4.794205826   2.391618878   2.568186436
