8
charge=0 charge_a=0 charge_b=0 selection_a=1-4 selection_b=5-8 scaling=2.00 benchmark_Eint=-0.149 benchmark_unit=kcal/mol group=PS
  P    0.015439613  -1.719053372  -1.353083200
  P    0.095573502   0.322416567  -2.166579880
  P   -1.753698856  -0.418371227  -1.235505873
  P   -1.106428835  -1.220533976  -3.184842461
  P    1.076288184   0.953722998   5.522873934
  P    1.136388634   2.997796096   4.714244990
  P    2.916012678   1.712393247   4.587277233
  P    2.268723323   2.504229343   6.540861852
