22
charge=0 charge_a=0 charge_b=0 selection_a=1-11 selection_b=12-22 scaling=0.80 benchmark_Eint=2.335 benchmark_unit=kcal/mol group=PS
  C   -2.522653513   3.409245501   1.712147932
  C   -1.474139873   4.118169943   1.135673418
  C   -0.406499134   3.506992111   0.495897339
  P   -0.198562152   1.796003135   0.308159284
  C   -1.623660168   1.218606599   1.106671446
  C   -2.589556703   2.019906473   1.695399032
  H   -3.318468200   3.960929004   2.192995552
  H   -1.497335819   5.199671916   1.191921817
  H    0.364895624   4.140942778   0.076214506
  H   -1.752441427   0.144597261   1.138132665
  H   -3.440989927   1.544702099   2.167303250
  C    2.386754744  -3.088395518  -1.116438424
  C    2.437271907  -1.698298495  -1.124898884
  C    1.436543916  -0.897261315  -0.597173591
  P   -0.017068490  -1.475848349   0.147230478
  C    0.218433108  -3.187611127   0.004096433
  C    1.320914549  -3.798382260  -0.574040459
  H    3.209871288  -3.639829621  -1.549202177
  H    3.304011305  -1.222239425  -1.567143603
  H    1.554651264   0.177375174  -0.644687767
  H   -0.564205662  -3.822432111   0.401026875
  H    1.358697061  -4.880428297  -0.607246036
