17
charge=0 charge_a=0 charge_b=0 selection_a=1-6 selection_b=7-17 scaling=0.85 benchmark_Eint=-1.437 benchmark_unit=kcal/mol group=PS
  P   -2.201631566  -0.622016546  -0.675044910
  P   -0.840242135  -1.773844466   0.687828359
  H   -2.995585354  -1.759658083  -0.979935425
  H   -1.399084387  -0.791593404  -1.830756615
  H   -1.870530117  -2.002838825   1.637233211
  H   -0.363722322  -0.632247899   1.375283804
  C    2.246377730  -0.376837330   0.519509648
  C    1.723514430  -0.349507413  -0.768975596
  C    0.806426648   0.598497908  -1.195393908
  P    0.156764509   1.879591612  -0.223229923
  C    0.981931180   1.573663502   1.270848405
  C    1.889660706   0.549097256   1.493364636
  H    2.954405405  -1.152439990   0.774848959
  H    2.048771897  -1.110164079  -1.467654776
  H    0.456062876   0.540877381  -2.218330386
  H    0.761730835   2.244097777   2.092391787
  H    2.341259413   0.458202364   2.473596547
