10
charge=0 charge_a=0 charge_b=0 selection_a=1-6 selection_b=7-10 scaling=0.90 benchmark_Eint=-2.125 benchmark_unit=kcal/mol group=PS
  S   -0.300805325  -1.367734909   0.828104596
  S   -0.876717632  -1.955583381  -1.079573924
  S   -1.318283488  -0.151188515  -2.002706907
  S    0.563061886   0.662598718  -2.333578819
  S    1.127941824   1.273276788  -0.431540223
  S    1.566708692  -0.520243160   0.520417187
  P    0.100127187   2.068239302   2.582926059
  P   -1.669200649   1.189369107   2.132508713
  H    0.019744134   1.763439053   3.971731074
  H   -1.595966717   1.486283051   0.744993973
