21
charge=0 charge_a=0 charge_b=0 selection_a=1-10 selection_b=11-21 scaling=0.90 benchmark_Eint=-3.447 benchmark_unit=kcal/mol group=PS
  C   -0.648632168   0.033175982  -1.787730985
  C   -0.856631736  -1.419355995  -1.492832612
  S    0.285569568  -2.543625065  -1.770472162
  C   -2.190942884  -1.757052618  -0.903480238
  H    0.323433284   0.219805731  -2.229786939
  H   -0.740314070   0.608243700  -0.863265781
  H   -1.432595777   0.393705301  -2.458444060
  H   -2.990073864  -1.419645439  -1.568289175
  H   -2.320282476  -1.213425353   0.036218916
  H   -2.294779859  -2.821187628  -0.721818860
  C    1.779301629   0.911008465   0.506794795
  C    0.909212660   1.891967426   0.971908416
  C   -0.256149594   1.605263502   1.666083693
  P   -0.812738547   0.013678185   2.073453188
  C    0.449473829  -0.944341007   1.373063666
  C    1.553915397  -0.447227296   0.698827494
  H    2.664335493   1.217246345  -0.033071626
  H    1.156694276   2.928156724   0.776318053
  H   -0.874532205   2.434435479   1.986968126
  H    0.352441916  -2.018909160   1.460722223
  H    2.267549244  -1.148208374   0.286192772
