14
charge=0 charge_a=0 charge_b=0 selection_a=1-8 selection_b=9-14 scaling=1.50 benchmark_Eint=-1.607 benchmark_unit=kcal/mol group=PS
  C   -1.759491979  -0.430040795  -1.048084583
  S   -0.051601238  -0.100029474  -1.623970130
  C   -0.317103327   1.592886905  -0.977550389
  S   -2.023548869   1.261494843  -0.395050204
  H   -1.796777090  -1.191566398  -0.274538175
  H   -2.434991995  -0.677960760  -1.860718732
  H   -0.276588621   2.349904545  -1.754351857
  H    0.368409248   1.837049883  -0.171570731
  P    3.384389341  -0.653313207   1.690343484
  P    1.566070302  -1.654619314   2.535107223
  H    3.774902517  -1.740114978   0.873240334
  H    4.259493722  -1.020600631   2.743780417
  H    0.738547232  -0.506710458   2.478733780
  H    1.905656932  -1.437948018   3.894394207
