10
charge=0 charge_a=0 charge_b=0 selection_a=1-6 selection_b=7-10 scaling=1.25 benchmark_Eint=-2.542 benchmark_unit=kcal/mol group=PS
  S   -0.300805325  -1.367734909   0.828104596
  S   -0.876717632  -1.955583381  -1.079573924
  S   -1.318283488  -0.151188515  -2.002706907
  S    0.563061886   0.662598718  -2.333578819
  S    1.127941824   1.273276788  -0.431540223
  S    1.566708692  -0.520243160   0.520417187
  P   -0.166604358   2.645168502   3.492152865
  P   -1.935932194   1.766298307   3.041735519
  H   -0.246987411   2.340368253   4.880957880
  H   -1.862698262   2.063212251   1.654220779
