18
charge=0 charge_a=0 charge_b=0 selection_a=1-12 selection_b=13-18 scaling=1.50 benchmark_Eint=-1.615 benchmark_unit=kcal/mol group=PS
  S    1.277000816  -0.682038286  -0.470089336
  C   -0.196007868  -0.979353273  -1.485701159
  S   -1.571436461   0.184402013  -1.273411954
  C   -0.760953663   1.686770713  -1.888516066
  S    0.634516613   2.299808320  -0.906005326
  C    1.780591157   0.917264863  -1.162591747
  H   -0.574555842  -1.954478608  -1.193844680
  H    0.086510241  -1.019692306  -2.536907205
  H   -1.514530255   2.469047230  -1.873512076
  H   -0.443902311   1.535026227  -2.919775159
  H    2.704777319   1.188340050  -0.660157343
  H    1.986702054   0.807881010  -2.226763862
  P   -0.691449743  -0.341978823   4.005375367
  P   -1.720245092  -2.274108059   3.595809707
  H   -1.738797124   0.155566184   4.822369318
  H   -1.086241411   0.380212792   2.858393402
  H   -0.684361987  -2.799141404   2.785988746
  H   -2.513376886  -1.884308482   2.488687175
