18
charge=0 charge_a=0 charge_b=0 selection_a=1-12 selection_b=13-18 scaling=0.95 benchmark_Eint=-3.934 benchmark_unit=kcal/mol group=PS
  S    1.277000816  -0.682038286  -0.470089336
  C   -0.196007868  -0.979353273  -1.485701159
  S   -1.571436461   0.184402013  -1.273411954
  C   -0.760953663   1.686770713  -1.888516066
  S    0.634516613   2.299808320  -0.906005326
  C    1.780591157   0.917264863  -1.162591747
  H   -0.574555842  -1.954478608  -1.193844680
  H    0.086510241  -1.019692306  -2.536907205
  H   -1.514530255   2.469047230  -1.873512076
  H   -0.443902311   1.535026227  -2.919775159
  H    2.704777319   1.188340050  -0.660157343
  H    1.986702054   0.807881010  -2.226763862
  P   -0.298561531   0.186952276   2.633194120
  P   -1.327356880  -1.745176960   2.223628460
  H   -1.345908912   0.684497283   3.450188071
  H   -0.693353199   0.909143891   1.486212155
  H   -0.291473775  -2.270210305   1.413807499
  H   -2.120488674  -1.355377383   1.116505928
