10
charge=0 charge_a=0 charge_b=0 selection_a=1-6 selection_b=7-10 scaling=0.95 benchmark_Eint=-3.109 benchmark_unit=kcal/mol group=PS
  S   -0.300805325  -1.367734909   0.828104596
  S   -0.876717632  -1.955583381  -1.079573924
  S   -1.318283488  -0.151188515  -2.002706907
  S    0.563061886   0.662598718  -2.333578819
  S    1.127941824   1.273276788  -0.431540223
  S    1.566708692  -0.520243160   0.520417187
  P    0.062022680   2.150657759   2.712815602
  P   -1.707305156   1.271787564   2.262398256
  H   -0.018360373   1.845857510   4.101620617
  H   -1.634071224   1.568701508   0.874883516
