10
charge=0 charge_a=0 charge_b=0 selection_a=1-6 selection_b=7-10 scaling=1.10 benchmark_Eint=-3.466 benchmark_unit=kcal/mol group=PS
  S   -0.300805325  -1.367734909   0.828104596
  S   -0.876717632  -1.955583381  -1.079573924
  S   -1.318283488  -0.151188515  -2.002706907
  S    0.563061886   0.662598718  -2.333578819
  S    1.127941824   1.273276788  -0.431540223
  S    1.566708692  -0.520243160   0.520417187
  P   -0.052290839   2.397913130   3.102484233
  P   -1.821618675   1.519042935   2.652066887
  H   -0.132673892   2.093112881   4.491289248
  H   -1.748384743   1.815956879   1.264552147
