13
charge=0 charge_a=0 charge_b=0 selection_a=1-9 selection_b=10-13 scaling=0.95 benchmark_Eint=-3.558 benchmark_unit=kcal/mol group=PS
  C    0.550228463   2.724151965  -1.618639706
  C   -0.798352241   2.371759802  -1.898377009
  C   -0.895558454   1.310743913  -2.751680665
  S    0.652831637   0.734284846  -3.219639526
  C    1.445419107   1.922300671  -2.265850020
  H    0.840179599   3.529478635  -0.962608239
  H   -1.653753492   2.877382681  -1.479270785
  H   -1.786232607   0.836295596  -3.123933935
  H    2.519750404   1.961477253  -2.230712189
  P   -0.890504035  -0.427892352   0.188507665
  P   -0.230698314   1.230122554   1.467654456
  P    1.251629488  -0.059012542   0.487873782
  P    0.031860870  -0.850129207   2.149793306
