20
charge=0 charge_a=0 charge_b=0 selection_a=1-9 selection_b=10-20 scaling=1.10 benchmark_Eint=-2.939 benchmark_unit=kcal/mol group=PS
  C   -1.524087981   1.439764071  -1.209665164
  C   -1.950545921   0.188396400  -1.732068358
  C   -0.910344273  -0.569947874  -2.186350016
  S    0.591924830   0.232360293  -1.978913814
  C   -0.170763375   1.601229363  -1.279961660
  H   -2.189644150   2.181167087  -0.796202001
  H   -2.980016854  -0.132329668  -1.767864518
  H   -0.944440088  -1.551905270  -2.624094511
  H    0.417465639   2.437720793  -0.947165932
  C    1.343928467  -2.711853924   0.941584411
  C    2.493196774  -2.003868044   1.273149016
  C    2.467453175  -0.744714711   1.853453173
  P    1.034914610   0.147779053   2.244464872
  C   -0.180509236  -0.974064278   1.729852826
  C    0.064231417  -2.213812926   1.163798885
  H    1.448997327  -3.688522924   0.489907947
  H    3.452692434  -2.461593917   1.065290235
  H    3.414129419  -0.268320106   2.076788610
  H   -1.210435528  -0.662382354   1.845196063
  H   -0.779835574  -2.824741513   0.869081891
