14
charge=0 charge_a=0 charge_b=0 selection_a=1-8 selection_b=9-14 scaling=0.85 benchmark_Eint=-2.614 benchmark_unit=kcal/mol group=PS
  C   -1.759491979  -0.430040795  -1.048084583
  S   -0.051601238  -0.100029474  -1.623970130
  C   -0.317103327   1.592886905  -0.977550389
  S   -2.023548869   1.261494843  -0.395050204
  H   -1.796777090  -1.191566398  -0.274538175
  H   -2.434991995  -0.677960760  -1.860718732
  H   -0.276588621   2.349904545  -1.754351857
  H    0.368409248   1.837049883  -0.171570731
  P    2.166919197  -0.053625710   0.603400368
  P    0.348600158  -1.054931817   1.448164107
  H    2.557432373  -1.140427481  -0.213702782
  H    3.042023578  -0.420913134   1.656837301
  H   -0.478922912   0.092977039   1.391790664
  H    0.688186788  -0.838260521   2.807451091
