18
charge=0 charge_a=0 charge_b=0 selection_a=1-12 selection_b=13-18 scaling=0.90 benchmark_Eint=-3.171 benchmark_unit=kcal/mol group=PS
  S    1.277000816  -0.682038286  -0.470089336
  C   -0.196007868  -0.979353273  -1.485701159
  S   -1.571436461   0.184402013  -1.273411954
  C   -0.760953663   1.686770713  -1.888516066
  S    0.634516613   2.299808320  -0.906005326
  C    1.780591157   0.917264863  -1.162591747
  H   -0.574555842  -1.954478608  -1.193844680
  H    0.086510241  -1.019692306  -2.536907205
  H   -1.514530255   2.469047230  -1.873512076
  H   -0.443902311   1.535026227  -2.919775159
  H    2.704777319   1.188340050  -0.660157343
  H    1.986702054   0.807881010  -2.226763862
  P   -0.262844421   0.235036922   2.508450371
  P   -1.291639770  -1.697092314   2.098884711
  H   -1.310191802   0.732581929   3.325444322
  H   -0.657636089   0.957228537   1.361468406
  H   -0.255756665  -2.222125659   1.289063750
  H   -2.084771564  -1.307292737   0.991762179
