17
charge=0 charge_a=0 charge_b=0 selection_a=1-6 selection_b=7-17 scaling=0.80 benchmark_Eint=6.399 benchmark_unit=kcal/mol group=PS
  S    1.320767222  -0.661444753   0.185760828
  S   -0.490401780  -1.315455386  -0.578311367
  S   -1.679262957   0.373934839  -0.441896990
  S   -0.954918937   1.581016072  -1.975665436
  S    0.864619194   2.229119363  -1.217431980
  S    2.059318490   0.537079946  -1.347320719
  C   -2.480286047  -1.032888236   1.840840379
  C   -2.413165155  -2.389549402   1.539048658
  C   -1.271182500  -3.151570250   1.723633942
  P    0.237093603  -2.562956535   2.344251823
  C   -0.170541877  -0.900551090   2.620930468
  C   -1.403573169  -0.323819068   2.362649963
  H   -3.408565393  -0.508114388   1.663693455
  H   -3.298413457  -2.866589252   1.136871757
  H   -1.310503960  -4.200207441   1.456153274
  H    0.612385363  -0.267702378   3.019010409
  H   -1.537049999   0.731235552   2.564774427
