14
charge=0 charge_a=0 charge_b=0 selection_a=1-8 selection_b=9-14 scaling=0.90 benchmark_Eint=-4.301 benchmark_unit=kcal/mol group=PS
  C   -1.759491979  -0.430040795  -1.048084583
  S   -0.051601238  -0.100029474  -1.623970130
  C   -0.317103327   1.592886905  -0.977550389
  S   -2.023548869   1.261494843  -0.395050204
  H   -1.796777090  -1.191566398  -0.274538175
  H   -2.434991995  -0.677960760  -1.860718732
  H   -0.276588621   2.349904545  -1.754351857
  H    0.368409248   1.837049883  -0.171570731
  P    2.260570747  -0.099755517   0.687011377
  P    0.442251708  -1.101061624   1.531775116
  H    2.651083923  -1.186557288  -0.130091773
  H    3.135675128  -0.467042941   1.740448310
  H   -0.385271362   0.046847232   1.475401673
  H    0.781838338  -0.884390328   2.891062100
