14
charge=0 charge_a=0 charge_b=0 selection_a=1-8 selection_b=9-14 scaling=1.25 benchmark_Eint=-3.325 benchmark_unit=kcal/mol group=PS
  C   -1.759491979  -0.430040795  -1.048084583
  S   -0.051601238  -0.100029474  -1.623970130
  C   -0.317103327   1.592886905  -0.977550389
  S   -2.023548869   1.261494843  -0.395050204
  H   -1.796777090  -1.191566398  -0.274538175
  H   -2.434991995  -0.677960760  -1.860718732
  H   -0.276588621   2.349904545  -1.754351857
  H    0.368409248   1.837049883  -0.171570731
  P    2.916131594  -0.422664169   1.272288439
  P    1.097812555  -1.423970276   2.117052178
  H    3.306644770  -1.509465940   0.455185289
  H    3.791235975  -0.789951593   2.325725372
  H    0.270289485  -0.276061420   2.060678735
  H    1.437399185  -1.207298980   3.476339162
