17
charge=0 charge_a=0 charge_b=0 selection_a=1-6 selection_b=7-17 scaling=1.50 benchmark_Eint=-1.143 benchmark_unit=kcal/mol group=PS
  S    1.320767222  -0.661444753   0.185760828
  S   -0.490401780  -1.315455386  -0.578311367
  S   -1.679262957   0.373934839  -0.441896990
  S   -0.954918937   1.581016072  -1.975665436
  S    0.864619194   2.229119363  -1.217431980
  S    2.059318490   0.537079946  -1.347320719
  C   -3.194013643  -2.454328424   3.678177339
  C   -3.126892751  -3.810989590   3.376385618
  C   -1.984910096  -4.573010438   3.560970902
  P   -0.476633993  -3.984396723   4.181588783
  C   -0.884269473  -2.321991278   4.458267428
  C   -2.117300765  -1.745259256   4.199986923
  H   -4.122292989  -1.929554576   3.501030415
  H   -4.012141053  -4.288029440   2.974208717
  H   -2.024231556  -5.621647629   3.293490234
  H   -0.101342233  -1.689142566   4.856347369
  H   -2.250777595  -0.690204636   4.402111387
