17
charge=0 charge_a=0 charge_b=0 selection_a=1-6 selection_b=7-17 scaling=1.10 benchmark_Eint=-4.556 benchmark_unit=kcal/mol group=PS
  S    1.320767222  -0.661444753   0.185760828
  S   -0.490401780  -1.315455386  -0.578311367
  S   -1.679262957   0.373934839  -0.441896990
  S   -0.954918937   1.581016072  -1.975665436
  S    0.864619194   2.229119363  -1.217431980
  S    2.059318490   0.537079946  -1.347320719
  C   -2.786169302  -1.642076888   2.628270505
  C   -2.719048410  -2.998738054   2.326478784
  C   -1.577065755  -3.760758902   2.511064068
  P   -0.068789652  -3.172145187   3.131681949
  C   -0.476425132  -1.509739742   3.408360594
  C   -1.709456424  -0.933007720   3.150080089
  H   -3.714448648  -1.117303040   2.451123581
  H   -3.604296712  -3.475777904   1.924301883
  H   -1.616387215  -4.809396093   2.243583400
  H    0.306502108  -0.876891030   3.806440535
  H   -1.842933254   0.122046900   3.352204553
