13
charge=0 charge_a=0 charge_b=0 selection_a=1-9 selection_b=10-13 scaling=1.25 benchmark_Eint=-2.152 benchmark_unit=kcal/mol group=PS
  C    0.550228463   2.724151965  -1.618639706
  C   -0.798352241   2.371759802  -1.898377009
  C   -0.895558454   1.310743913  -2.751680665
  S    0.652831637   0.734284846  -3.219639526
  C    1.445419107   1.922300671  -2.265850020
  H    0.840179599   3.529478635  -0.962608239
  H   -1.653753492   2.877382681  -1.479270785
  H   -1.786232607   0.836295596  -3.123933935
  H    2.519750404   1.961477253  -2.230712189
  P   -0.958251155  -0.862450068   1.166043156
  P   -0.298445434   0.795564838   2.445189947
  P    1.183882368  -0.493570258   1.465409273
  P   -0.035886250  -1.284686923   3.127328797
