20
charge=0 charge_a=0 charge_b=0 selection_a=1-9 selection_b=10-20 scaling=1.25 benchmark_Eint=-1.815 benchmark_unit=kcal/mol group=PS
  C   -1.524087981   1.439764071  -1.209665164
  C   -1.950545921   0.188396400  -1.732068358
  C   -0.910344273  -0.569947874  -2.186350016
  S    0.591924830   0.232360293  -1.978913814
  C   -0.170763375   1.601229363  -1.279961660
  H   -2.189644150   2.181167087  -0.796202001
  H   -2.980016854  -0.132329668  -1.767864518
  H   -0.944440088  -1.551905270  -2.624094511
  H    0.417465639   2.437720793  -0.947165932
  C    1.550098757  -2.914827957   1.362536779
  C    2.699367064  -2.206842077   1.694101384
  C    2.673623465  -0.947688744   2.274405541
  P    1.241084900  -0.055194980   2.665417240
  C    0.025661054  -1.177038311   2.150805194
  C    0.270401707  -2.416786959   1.584751253
  H    1.655167617  -3.891496957   0.910860315
  H    3.658862724  -2.664567950   1.486242603
  H    3.620299709  -0.471294139   2.497740978
  H   -1.004265238  -0.865356387   2.266148431
  H   -0.573665284  -3.027715546   1.290034259
