17
charge=0 charge_a=0 charge_b=0 selection_a=1-6 selection_b=7-17 scaling=1.05 benchmark_Eint=-5.046 benchmark_unit=kcal/mol group=PS
  S    1.320767222  -0.661444753   0.185760828
  S   -0.490401780  -1.315455386  -0.578311367
  S   -1.679262957   0.373934839  -0.441896990
  S   -0.954918937   1.581016072  -1.975665436
  S    0.864619194   2.229119363  -1.217431980
  S    2.059318490   0.537079946  -1.347320719
  C   -2.735188760  -1.540545446   2.497032150
  C   -2.668067868  -2.897206612   2.195240429
  C   -1.526085213  -3.659227460   2.379825713
  P   -0.017809110  -3.070613745   3.000443594
  C   -0.425444590  -1.408208300   3.277122239
  C   -1.658475882  -0.831476278   3.018841734
  H   -3.663468106  -1.015771598   2.319885226
  H   -3.553316170  -3.374246462   1.793063528
  H   -1.565406673  -4.707864651   2.112345045
  H    0.357482650  -0.775359588   3.675202180
  H   -1.791952712   0.223578342   3.220966198
