14
charge=0 charge_a=0 charge_b=0 selection_a=1-8 selection_b=9-14 scaling=2.00 benchmark_Eint=-0.389 benchmark_unit=kcal/mol group=PS
  C   -1.759491979  -0.430040795  -1.048084583
  S   -0.051601238  -0.100029474  -1.623970130
  C   -0.317103327   1.592886905  -0.977550389
  S   -2.023548869   1.261494843  -0.395050204
  H   -1.796777090  -1.191566398  -0.274538175
  H   -2.434991995  -0.677960760  -1.860718732
  H   -0.276588621   2.349904545  -1.754351857
  H    0.368409248   1.837049883  -0.171570731
  P    4.320904836  -1.114611282   2.526453573
  P    2.502585797  -2.115917389   3.371217312
  H    4.711418012  -2.201413053   1.709350423
  H    5.196009217  -1.481898706   3.579890506
  H    1.675062727  -0.968008533   3.314843869
  H    2.842172427  -1.899246093   4.730504296
