16
charge=0 charge_a=0 charge_b=0 selection_a=1-12 selection_b=13-16 scaling=0.85 benchmark_Eint=-0.803 benchmark_unit=kcal/mol group=PS
  S    0.432214780  -1.649512860  -1.880153970
  C   -1.043039608  -1.215290104  -2.840967031
  S   -2.018763744   0.182408779  -2.218606991
  C   -0.795313545   1.499043439  -2.468499244
  S    0.709907083   1.391257349  -1.463051073
  C    1.399686908  -0.139283578  -2.149256917
  H   -1.695289830  -2.083434725  -2.809485877
  H   -0.766872354  -1.031034910  -3.878688908
  H   -1.283366580   2.428766118  -2.190100267
  H   -0.531248027   1.552818835  -3.524166152
  H    2.348010016  -0.295158368  -1.643803082
  H    1.587972161  -0.010399401  -3.214325421
  P    1.346466966  -0.575750788   1.124209428
  P   -0.611960294  -0.472432798   1.620015692
  H    1.790876575  -0.801438688   2.459590127
  H   -1.043721305  -0.247822978   0.283911472
