21
charge=0 charge_a=0 charge_b=0 selection_a=1-10 selection_b=11-21 scaling=1.50 benchmark_Eint=-1.522 benchmark_unit=kcal/mol group=PS
  C   -0.648632168   0.033175982  -1.787730985
  C   -0.856631736  -1.419355995  -1.492832612
  S    0.285569568  -2.543625065  -1.770472162
  C   -2.190942884  -1.757052618  -0.903480238
  H    0.323433284   0.219805731  -2.229786939
  H   -0.740314070   0.608243700  -0.863265781
  H   -1.432595777   0.393705301  -2.458444060
  H   -2.990073864  -1.419645439  -1.568289175
  H   -2.320282476  -1.213425353   0.036218916
  H   -2.294779859  -2.821187628  -0.721818860
  C    2.251525191   1.941874547   1.949751679
  C    1.381436222   2.922833508   2.414865300
  C    0.216073968   2.636129584   3.109040577
  P   -0.340514985   1.044544267   3.516410072
  C    0.921697391   0.086525075   2.816020550
  C    2.026138959   0.583638786   2.141784378
  H    3.136559055   2.248112427   1.409885258
  H    1.628917838   3.959022806   2.219274937
  H   -0.402308643   3.465301561   3.429925010
  H    0.824665478  -0.988043078   2.903679107
  H    2.739772806  -0.117342292   1.729149656
