17
charge=0 charge_a=0 charge_b=0 selection_a=1-6 selection_b=7-17 scaling=1.25 benchmark_Eint=-2.855 benchmark_unit=kcal/mol group=PS
  S    1.320767222  -0.661444753   0.185760828
  S   -0.490401780  -1.315455386  -0.578311367
  S   -1.679262957   0.373934839  -0.441896990
  S   -0.954918937   1.581016072  -1.975665436
  S    0.864619194   2.229119363  -1.217431980
  S    2.059318490   0.537079946  -1.347320719
  C   -2.939110930  -1.946671214   3.021985568
  C   -2.871990038  -3.303332380   2.720193847
  C   -1.730007383  -4.065353228   2.904779131
  P   -0.221731280  -3.476739513   3.525397012
  C   -0.629366760  -1.814334068   3.802075657
  C   -1.862398052  -1.237602046   3.543795152
  H   -3.867390276  -1.421897366   2.844838644
  H   -3.757238340  -3.780372230   2.318016946
  H   -1.769328843  -5.113990419   2.637298463
  H    0.153560480  -1.181485356   4.200155598
  H   -1.995874882  -0.182547426   3.745919616
