14
charge=0 charge_a=0 charge_b=0 selection_a=1-8 selection_b=9-14 scaling=0.95 benchmark_Eint=-5.057 benchmark_unit=kcal/mol group=PS
  C   -1.759491979  -0.430040795  -1.048084583
  S   -0.051601238  -0.100029474  -1.623970130
  C   -0.317103327   1.592886905  -0.977550389
  S   -2.023548869   1.261494843  -0.395050204
  H   -1.796777090  -1.191566398  -0.274538175
  H   -2.434991995  -0.677960760  -1.860718732
  H   -0.276588621   2.349904545  -1.754351857
  H    0.368409248   1.837049883  -0.171570731
  P    2.354222296  -0.145885325   0.770622386
  P    0.535903257  -1.147191432   1.615386125
  H    2.744735472  -1.232687096  -0.046480764
  H    3.229326677  -0.513172749   1.824059319
  H   -0.291619813   0.000717424   1.559012682
  H    0.875489887  -0.930520136   2.974673109
