12
charge=0 charge_a=0 charge_b=0 selection_a=1-3 selection_b=4-12 scaling=2.00 benchmark_Eint=-0.122 benchmark_unit=kcal/mol group=PS
  S   -0.510468511   0.029328209  -0.804133840
  C   -1.793227533  -0.113566892  -1.663377273
  S   -3.080112958  -0.257277240  -2.525162871
  C    5.322748637   1.330024108   2.770656952
  C    5.309381531  -0.069882023   3.019052143
  C    4.523791743  -0.404988748   4.083897029
  S    3.796698542   0.980974252   4.790719938
  C    4.546999577   2.025482718   3.652641667
  H    5.878449183   1.796446916   1.972530689
  H    5.853750244  -0.792606098   2.431950820
  H    4.330753726  -1.383610797   4.486593060
  H    4.373343138   3.086288592   3.693399255
