18
charge=0 charge_a=0 charge_b=0 selection_a=1-12 selection_b=13-18 scaling=1.50 benchmark_Eint=-0.798 benchmark_unit=kcal/mol group=PS
  S    0.766994446  -1.680383117  -1.873063729
  C   -0.888637526  -1.352263086  -2.536686321
  S   -1.807436589   0.012744364  -1.774004040
  C   -0.727737560   1.387071623  -2.258279575
  S    0.946940907   1.381348341  -1.562142120
  C    1.574791005  -0.127671330  -2.348087397
  H   -1.472187016  -2.250047317  -2.353418254
  H   -0.827609216  -1.196434540  -3.613246254
  H   -1.205271978   2.291304728  -1.891585440
  H   -0.672625574   1.444559254  -3.344870281
  H    2.612978276  -0.219778307  -2.041767665
  H    1.545330722  -0.015953888  -3.431448686
  S   -1.215520903  -2.163226762   3.282882983
  S    0.627499946  -2.364222344   4.213763738
  S    1.681142325  -0.722808266   3.507560225
  S    0.815982675   0.856745386   4.536869064
  S   -1.027093016   1.058592897   3.606369822
  S   -2.080544070  -0.583333902   4.311883857
