18
charge=0 charge_a=0 charge_b=0 selection_a=1-8 selection_b=9-18 scaling=1.50 benchmark_Eint=-1.190 benchmark_unit=kcal/mol group=PS
  C   -1.264022915  -1.401438857  -1.759057712
  S    0.290532069  -0.454261703  -1.976434560
  C   -0.700026172   0.999469454  -1.463161634
  S   -2.276051718   0.071631291  -1.358985617
  H   -1.214679292  -2.098999065  -0.928474556
  H   -1.581579525  -1.900018500  -2.669459604
  H   -0.717295902   1.781488044  -2.215727211
  H   -0.391124610   1.393562778  -0.499546647
  C   -0.335735113   0.439285571   5.215325823
  S   -0.934427702   0.040541038   3.542097646
  S   -0.563999346  -1.968617280   3.392426423
  C    1.197728175  -2.044556357   2.938542407
  H   -0.560132428   1.493239293   5.375360878
  H    0.737416270   0.288383389   5.294789617
  H   -0.856980264  -0.159967667   5.956144596
  H    1.428213855  -3.100963260   2.804044684
  H    1.820368988  -1.645284902   3.734508683
  H    1.368623463  -1.512207231   2.007414386
