18
charge=0 charge_a=0 charge_b=0 selection_a=1-9 selection_b=10-18 scaling=1.10 benchmark_Eint=-3.198 benchmark_unit=kcal/mol group=PS
  C   -2.215044792  -0.944786803  -1.313368993
  C   -2.191466582  -0.877599262  -2.734366294
  C   -1.021914768  -0.362994801  -3.213078651
  S    0.055374415   0.042940551  -1.936380546
  C   -1.065392537  -0.480071093  -0.744733779
  H   -3.048769990  -1.320960126  -0.741125403
  H   -3.004574172  -1.196292046  -3.367876631
  H   -0.737305190  -0.200621334  -4.237870930
  H   -0.812336438  -0.416662754   0.298165653
  C    2.029294572   0.213486012   1.457745763
  C    1.294926083  -0.400417474   2.509177479
  C    0.354613197   0.431496240   3.046028589
  S    0.358861363   1.966824327   2.275136515
  C    1.630143817   1.497143712   1.221285288
  H    2.808996698  -0.278303438   0.898097526
  H    1.455780354  -1.412061167   2.847088106
  H   -0.333430483   0.228678846   3.847798739
  H    2.002851931   2.183867051   0.482271495
