15
charge=0 charge_a=0 charge_b=0 selection_a=1-6 selection_b=7-15 scaling=1.05 benchmark_Eint=-4.699 benchmark_unit=kcal/mol group=PS
  S   -0.130523000   0.122193748   1.607122861
  S   -0.875939918  -1.084641416   0.099831260
  S   -0.436573894   0.002652018  -1.606016928
  S    1.618734168  -0.264525404  -1.804570806
  S    2.375998502   0.932054010  -0.286733319
  S    1.927515419  -0.141349242   1.432338801
  C   -3.405842481   1.683493064  -0.377264028
  C   -3.350137028   1.622415243   1.041062315
  C   -4.000527657   0.531685518   1.543770558
  S   -4.686365163  -0.424383208   0.294127568
  C   -4.097785679   0.638311819  -0.919155097
  H   -2.947800968   2.462163601  -0.965719561
  H   -2.848181972   2.351515574   1.656643853
  H   -4.114179222   0.241855118   2.573525340
  H   -4.293235197   0.437727003  -1.957834676
