24
charge=0 charge_a=0 charge_b=0 selection_a=1-12 selection_b=13-24 scaling=0.85 benchmark_Eint=-3.320 benchmark_unit=kcal/mol group=PS
  S   -0.647408462  -3.641240457  -1.734404322
  C   -2.126277989  -2.621332130  -1.485550852
  S   -1.903160987  -1.100644696  -0.521658028
  C   -0.802137408  -0.202980281  -1.648989427
  S    0.829251661  -0.942717214  -1.932096576
  C    0.312354166  -2.480318674  -2.744535048
  H   -2.831972661  -3.233324824  -0.930863998
  H   -2.567755071  -2.380072318  -2.452033234
  H   -0.617858818   0.761631802  -1.184044543
  H   -1.303791481  -0.046795660  -2.602892354
  H    1.224876118  -2.998722060  -3.025223859
  H   -0.241628371  -2.245603997  -3.652933981
  S   -0.889848773   0.632914891   1.645698261
  C    0.745801772  -0.102574723   1.375624384
  S    1.846251863   0.785474087   0.240011357
  C    2.057519313   2.321282329   1.182224442
  S    0.571863346   3.336161778   1.410134249
  C   -0.383509072   2.185483313   2.435911630
  H    0.566600172  -1.073475876   0.921759254
  H    1.245524365  -0.245364625   2.332614589
  H    2.761867549   2.928716927   0.620871463
  H    2.496689631   2.097191977   2.153878115
  H   -1.299819887   2.702634980   2.706408364
  H    0.169600844   1.968084878   3.349142515
