15
charge=0 charge_a=0 charge_b=0 selection_a=1-6 selection_b=7-15 scaling=1.50 benchmark_Eint=-1.059 benchmark_unit=kcal/mol group=PS
  S   -0.130523000   0.122193748   1.607122861
  S   -0.875939918  -1.084641416   0.099831260
  S   -0.436573894   0.002652018  -1.606016928
  S    1.618734168  -0.264525404  -1.804570806
  S    2.375998502   0.932054010  -0.286733319
  S    1.927515419  -0.141349242   1.432338801
  C   -4.906742457   1.874957413  -0.251335011
  C   -4.851037004   1.813879592   1.166991332
  C   -5.501427633   0.723149867   1.669699575
  S   -6.187265139  -0.232918859   0.420056585
  C   -5.598685655   0.829776168  -0.793226080
  H   -4.448700944   2.653627950  -0.839790544
  H   -4.349081948   2.542979923   1.782572870
  H   -5.615079198   0.433319467   2.699454357
  H   -5.794135173   0.629191352  -1.831905659
