18
charge=0 charge_a=0 charge_b=0 selection_a=1-8 selection_b=9-18 scaling=0.85 benchmark_Eint=-0.719 benchmark_unit=kcal/mol group=PS
  C   -1.264022915  -1.401438857  -1.759057712
  S    0.290532069  -0.454261703  -1.976434560
  C   -0.700026172   0.999469454  -1.463161634
  S   -2.276051718   0.071631291  -1.358985617
  H   -1.214679292  -2.098999065  -0.928474556
  H   -1.581579525  -1.900018500  -2.669459604
  H   -0.717295902   1.781488044  -2.215727211
  H   -0.391124610   1.393562778  -0.499546647
  C   -0.553270114   0.686085952   3.382388963
  S   -1.151962703   0.287341419   1.709160786
  S   -0.781534347  -1.721816899   1.559489563
  C    0.980193174  -1.797755976   1.105605547
  H   -0.777667429   1.740039674   3.542424018
  H    0.519881269   0.535183770   3.461852757
  H   -1.074515265   0.086832714   4.123207736
  H    1.210678854  -2.854162879   0.971107824
  H    1.602833987  -1.398484521   1.901571823
  H    1.151088462  -1.265406850   0.174477526
