18
charge=0 charge_a=0 charge_b=0 selection_a=1-9 selection_b=10-18 scaling=0.90 benchmark_Eint=-2.855 benchmark_unit=kcal/mol group=PS
  C   -2.215044792  -0.944786803  -1.313368993
  C   -2.191466582  -0.877599262  -2.734366294
  C   -1.021914768  -0.362994801  -3.213078651
  S    0.055374415   0.042940551  -1.936380546
  C   -1.065392537  -0.480071093  -0.744733779
  H   -3.048769990  -1.320960126  -0.741125403
  H   -3.004574172  -1.196292046  -3.367876631
  H   -0.737305190  -0.200621334  -4.237870930
  H   -0.812336438  -0.416662754   0.298165653
  C    1.798856562   0.048109750   0.974434623
  C    1.064488073  -0.565793736   2.025866339
  C    0.124175187   0.266119978   2.562717449
  S    0.128423353   1.801448065   1.791825375
  C    1.399705807   1.331767450   0.737974148
  H    2.578558688  -0.443679700   0.414786386
  H    1.225342344  -1.577437429   2.363776966
  H   -0.563868493   0.063302584   3.364487599
  H    1.772413921   2.018490789  -0.001039645
