18
charge=0 charge_a=0 charge_b=0 selection_a=1-8 selection_b=9-18 scaling=0.90 benchmark_Eint=-3.077 benchmark_unit=kcal/mol group=PS
  C   -1.264022915  -1.401438857  -1.759057712
  S    0.290532069  -0.454261703  -1.976434560
  C   -0.700026172   0.999469454  -1.463161634
  S   -2.276051718   0.071631291  -1.358985617
  H   -1.214679292  -2.098999065  -0.928474556
  H   -1.581579525  -1.900018500  -2.669459604
  H   -0.717295902   1.781488044  -2.215727211
  H   -0.391124610   1.393562778  -0.499546647
  C   -0.536536652   0.667101307   3.523384106
  S   -1.135229241   0.268356774   1.850155929
  S   -0.764800885  -1.740801544   1.700484706
  C    0.996926636  -1.816740621   1.246600690
  H   -0.760933967   1.721055029   3.683419161
  H    0.536614731   0.516199125   3.602847900
  H   -1.057781803   0.067848069   4.264202879
  H    1.227412316  -2.873147524   1.112102967
  H    1.619567449  -1.417469166   2.042566966
  H    1.167821924  -1.284391495   0.315472669
