18
charge=0 charge_a=0 charge_b=0 selection_a=1-12 selection_b=13-18 scaling=0.90 benchmark_Eint=-1.756 benchmark_unit=kcal/mol group=PS
  S    0.766994446  -1.680383117  -1.873063729
  C   -0.888637526  -1.352263086  -2.536686321
  S   -1.807436589   0.012744364  -1.774004040
  C   -0.727737560   1.387071623  -2.258279575
  S    0.946940907   1.381348341  -1.562142120
  C    1.574791005  -0.127671330  -2.348087397
  H   -1.472187016  -2.250047317  -2.353418254
  H   -0.827609216  -1.196434540  -3.613246254
  H   -1.205271978   2.291304728  -1.891585440
  H   -0.672625574   1.444559254  -3.344870281
  H    2.612978276  -0.219778307  -2.041767665
  H    1.545330722  -0.015953888  -3.431448686
  S   -1.148484501  -1.940575042   1.029407467
  S    0.694536348  -2.141570624   1.960288222
  S    1.748178727  -0.500156546   1.254084709
  S    0.883019077   1.079397106   2.283393548
  S   -0.960056614   1.281244617   1.352894306
  S   -2.013507668  -0.360682182   2.058408341
