18
charge=0 charge_a=0 charge_b=0 selection_a=1-9 selection_b=10-18 scaling=0.80 benchmark_Eint=0.989 benchmark_unit=kcal/mol group=PS
  C   -2.215044792  -0.944786803  -1.313368993
  C   -2.191466582  -0.877599262  -2.734366294
  C   -1.021914768  -0.362994801  -3.213078651
  S    0.055374415   0.042940551  -1.936380546
  C   -1.065392537  -0.480071093  -0.744733779
  H   -3.048769990  -1.320960126  -0.741125403
  H   -3.004574172  -1.196292046  -3.367876631
  H   -0.737305190  -0.200621334  -4.237870930
  H   -0.812336438  -0.416662754   0.298165653
  C    1.683637557  -0.034578381   0.732779052
  C    0.949269068  -0.648481867   1.784210768
  C    0.008956182   0.183431847   2.321061878
  S    0.013204348   1.718759934   1.550169804
  C    1.284486802   1.249079319   0.496318577
  H    2.463339683  -0.526367831   0.173130815
  H    1.110123339  -1.660125560   2.122121395
  H   -0.679087498  -0.019385547   3.122832028
  H    1.657194916   1.935802658  -0.242695216
