18
charge=0 charge_a=0 charge_b=0 selection_a=1-12 selection_b=13-18 scaling=0.80 benchmark_Eint=8.985 benchmark_unit=kcal/mol group=PS
  S    0.766994446  -1.680383117  -1.873063729
  C   -0.888637526  -1.352263086  -2.536686321
  S   -1.807436589   0.012744364  -1.774004040
  C   -0.727737560   1.387071623  -2.258279575
  S    0.946940907   1.381348341  -1.562142120
  C    1.574791005  -0.127671330  -2.348087397
  H   -1.472187016  -2.250047317  -2.353418254
  H   -0.827609216  -1.196434540  -3.613246254
  H   -1.205271978   2.291304728  -1.891585440
  H   -0.672625574   1.444559254  -3.344870281
  H    2.612978276  -0.219778307  -2.041767665
  H    1.545330722  -0.015953888  -3.431448686
  S   -1.137311768  -1.903466422   0.653828215
  S    0.705709081  -2.104462004   1.584708970
  S    1.759351460  -0.463047926   0.878505457
  S    0.894191810   1.116505726   1.907814296
  S   -0.948883881   1.318353237   0.977315054
  S   -2.002334935  -0.323573562   1.682829089
