18
charge=0 charge_a=0 charge_b=0 selection_a=1-9 selection_b=10-18 scaling=0.95 benchmark_Eint=-3.439 benchmark_unit=kcal/mol group=PS
  C   -2.215044792  -0.944786803  -1.313368993
  C   -2.191466582  -0.877599262  -2.734366294
  C   -1.021914768  -0.362994801  -3.213078651
  S    0.055374415   0.042940551  -1.936380546
  C   -1.065392537  -0.480071093  -0.744733779
  H   -3.048769990  -1.320960126  -0.741125403
  H   -3.004574172  -1.196292046  -3.367876631
  H   -0.737305190  -0.200621334  -4.237870930
  H   -0.812336438  -0.416662754   0.298165653
  C    1.856466064   0.089453816   1.095262408
  C    1.122097575  -0.524449670   2.146694124
  C    0.181784689   0.307464044   2.683545234
  S    0.186032855   1.842792131   1.912653160
  C    1.457315309   1.373111516   0.858801933
  H    2.636168190  -0.402335634   0.535614171
  H    1.282951846  -1.536093363   2.484604751
  H   -0.506258991   0.104646650   3.485315384
  H    1.830023423   2.059834855   0.119788140
