18
charge=0 charge_a=0 charge_b=0 selection_a=1-9 selection_b=10-18 scaling=1.25 benchmark_Eint=-2.246 benchmark_unit=kcal/mol group=PS
  C   -2.215044792  -0.944786803  -1.313368993
  C   -2.191466582  -0.877599262  -2.734366294
  C   -1.021914768  -0.362994801  -3.213078651
  S    0.055374415   0.042940551  -1.936380546
  C   -1.065392537  -0.480071093  -0.744733779
  H   -3.048769990  -1.320960126  -0.741125403
  H   -3.004574172  -1.196292046  -3.367876631
  H   -0.737305190  -0.200621334  -4.237870930
  H   -0.812336438  -0.416662754   0.298165653
  C    2.202123080   0.337518208   1.820229119
  C    1.467754591  -0.276385278   2.871660835
  C    0.527441705   0.555528436   3.408511945
  S    0.531689871   2.090856523   2.637619871
  C    1.802972325   1.621175908   1.583768644
  H    2.981825206  -0.154271242   1.260580882
  H    1.628608862  -1.288028971   3.209571462
  H   -0.160601975   0.352711042   4.210282095
  H    2.175680439   2.307899247   0.844754851
