12
charge=0 charge_a=0 charge_b=0 selection_a=1-3 selection_b=4-12 scaling=1.00 benchmark_Eint=-2.774 benchmark_unit=kcal/mol group=PS
  S   -0.510468511   0.029328209  -0.804133840
  C   -1.793227533  -0.113566892  -1.663377273
  S   -3.080112958  -0.257277240  -2.525162871
  C    2.683436182   0.939783934   0.436138743
  C    2.670069076  -0.460122197   0.684533934
  C    1.884479288  -0.795228922   1.749378820
  S    1.157386087   0.590734078   2.456201729
  C    1.907687122   1.635242544   1.318123458
  H    3.239136728   1.406206742  -0.361987520
  H    3.214437789  -1.182846272   0.097432611
  H    1.691441271  -1.773850971   2.152074851
  H    1.734030683   2.696048418   1.358881046
