24
charge=0 charge_a=0 charge_b=0 selection_a=1-12 selection_b=13-24 scaling=1.10 benchmark_Eint=-6.191 benchmark_unit=kcal/mol group=PS
  S   -0.647408462  -3.641240457  -1.734404322
  C   -2.126277989  -2.621332130  -1.485550852
  S   -1.903160987  -1.100644696  -0.521658028
  C   -0.802137408  -0.202980281  -1.648989427
  S    0.829251661  -0.942717214  -1.932096576
  C    0.312354166  -2.480318674  -2.744535048
  H   -2.831972661  -3.233324824  -0.930863998
  H   -2.567755071  -2.380072318  -2.452033234
  H   -0.617858818   0.761631802  -1.184044543
  H   -1.303791481  -0.046795660  -2.602892354
  H    1.224876118  -2.998722060  -3.025223859
  H   -0.241628371  -2.245603997  -3.652933981
  S   -0.674567340   1.204390768   2.128041692
  C    0.961083205   0.468901154   1.857967815
  S    2.061533296   1.356949964   0.722354788
  C    2.272800746   2.892758206   1.664567873
  S    0.787144779   3.907637655   1.892477680
  C   -0.168227639   2.756959190   2.918255061
  H    0.781881605  -0.501999999   1.404102685
  H    1.460805798   0.326111252   2.814958020
  H    2.977148982   3.500192804   1.103214894
  H    2.711971064   2.668667854   2.636221546
  H   -1.084538454   3.274110857   3.188751795
  H    0.384882277   2.539560755   3.831485946
