24
charge=0 charge_a=0 charge_b=0 selection_a=1-12 selection_b=13-24 scaling=0.90 benchmark_Eint=-5.763 benchmark_unit=kcal/mol group=PS
  S   -0.647408462  -3.641240457  -1.734404322
  C   -2.126277989  -2.621332130  -1.485550852
  S   -1.903160987  -1.100644696  -0.521658028
  C   -0.802137408  -0.202980281  -1.648989427
  S    0.829251661  -0.942717214  -1.932096576
  C    0.312354166  -2.480318674  -2.744535048
  H   -2.831972661  -3.233324824  -0.930863998
  H   -2.567755071  -2.380072318  -2.452033234
  H   -0.617858818   0.761631802  -1.184044543
  H   -1.303791481  -0.046795660  -2.602892354
  H    1.224876118  -2.998722060  -3.025223859
  H   -0.241628371  -2.245603997  -3.652933981
  S   -0.846792486   0.747210066   1.742166948
  C    0.788858059   0.011720452   1.472093071
  S    1.889308150   0.899769262   0.336480044
  C    2.100575600   2.435577504   1.278693129
  S    0.614919633   3.450456953   1.506602936
  C   -0.340452785   2.299778488   2.532380317
  H    0.609656459  -0.959180701   1.018227941
  H    1.288580652  -0.131069450   2.429083276
  H    2.804923836   3.043012102   0.717340150
  H    2.539745918   2.211487152   2.250346802
  H   -1.256763600   2.816930155   2.802877051
  H    0.212657131   2.082380053   3.445611202
