7
charge=0 charge_a=0 charge_b=0 selection_a=1-2 selection_b=3-7 scaling=1.50 benchmark_Eint=-0.061 benchmark_unit=kcal/mol group=Halogens
  H   -1.031933282   2.389907216  -2.258777028
  H   -1.039423001   1.845456356  -2.762203311
  C    0.398602886  -0.847025293   1.270769769
  F    0.511506359   0.438374506   1.574721080
  F   -0.871419163  -1.133078368   1.022683516
  F    0.825335240  -1.580179063   2.289968539
  F    1.130188163  -1.114170218   0.198410474
