7
charge=0 charge_a=0 charge_b=0 selection_a=1-2 selection_b=3-7 scaling=1.05 benchmark_Eint=-0.329 benchmark_unit=kcal/mol group=Halogens
  H   -1.031933282   2.389907216  -2.258777028
  H   -1.039423001   1.845456356  -2.762203311
  C    0.002786809  -0.028951090   0.227289142
  F    0.115690282   1.256448709   0.531240453
  F   -1.267235240  -0.315004165  -0.020797111
  F    0.429519163  -0.762104860   1.246487912
  F    0.734372086  -0.296096015  -0.845070153
