7
charge=0 charge_a=0 charge_b=0 selection_a=1-2 selection_b=3-7 scaling=0.95 benchmark_Eint=-0.349 benchmark_unit=kcal/mol group=Halogens
  H   -1.031933282   2.389907216  -2.258777028
  H   -1.039423001   1.845456356  -2.762203311
  C   -0.085172319   0.152843178  -0.004595442
  F    0.027731154   1.438242977   0.299355869
  F   -1.355194368  -0.133209897  -0.252681695
  F    0.341560035  -0.580310592   1.014603328
  F    0.646412958  -0.114301747  -1.076954737
