7
charge=0 charge_a=0 charge_b=0 selection_a=1-2 selection_b=3-7 scaling=2.00 benchmark_Eint=-0.012 benchmark_unit=kcal/mol group=Halogens
  H   -1.031933282   2.389907216  -2.258777028
  H   -1.039423001   1.845456356  -2.762203311
  C    0.838398527  -1.755996631   2.430192688
  F    0.951302000  -0.470596832   2.734143999
  F   -0.431623522  -2.042049706   2.182106435
  F    1.265130881  -2.489150401   3.449391458
  F    1.569983804  -2.023141556   1.357833393
