7
charge=0 charge_a=0 charge_b=0 selection_a=1-2 selection_b=3-7 scaling=0.90 benchmark_Eint=-0.267 benchmark_unit=kcal/mol group=Halogens
  H   -1.031933282   2.389907216  -2.258777028
  H   -1.039423001   1.845456356  -2.762203311
  C   -0.129151883   0.243740311  -0.120537734
  F   -0.016248410   1.529140110   0.183413577
  F   -1.399173932  -0.042312764  -0.368623987
  F    0.297580471  -0.489413459   0.898661036
  F    0.602433394  -0.023404614  -1.192897029
