7
charge=0 charge_a=0 charge_b=0 selection_a=1-2 selection_b=3-7 scaling=0.95 benchmark_Eint=-0.433 benchmark_unit=kcal/mol group=Halogens
  H    0.267325563   0.325453737  -1.639389132
  H   -0.134202554   0.169338257  -1.035620119
  C   -0.350900693  -0.025719435   2.360743538
 Cl   -1.801953315  -0.497732513   1.444409606
 Cl    1.002160419  -1.090011834   1.915212297
 Cl   -0.676380328  -0.175839585   4.102806328
 Cl    0.068421058   1.659383541   1.977822672
