7
charge=0 charge_a=0 charge_b=0 selection_a=1-2 selection_b=3-7 scaling=2.00 benchmark_Eint=-0.025 benchmark_unit=kcal/mol group=Halogens
  H    0.267325563   0.325453737  -1.639389132
  H   -0.134202554   0.169338257  -1.035620119
  C   -0.728158469  -0.272242744   5.694620818
 Cl   -2.179211091  -0.744255822   4.778286886
 Cl    0.624902643  -1.336535143   5.249089577
 Cl   -1.053638104  -0.422362894   7.436683608
 Cl   -0.308836718   1.412860232   5.311699952
