7
charge=0 charge_a=0 charge_b=0 selection_a=1-2 selection_b=3-7 scaling=1.25 benchmark_Eint=-0.276 benchmark_unit=kcal/mol group=Halogens
  H    0.267325563   0.325453737  -1.639389132
  H   -0.134202554   0.169338257  -1.035620119
  C   -0.458688629  -0.096154666   3.313279904
 Cl   -1.909741251  -0.568167744   2.396945972
 Cl    0.894372483  -1.160447065   2.867748663
 Cl   -0.784168264  -0.246274816   5.055342694
 Cl   -0.039366878   1.588948310   2.930359038
