7
charge=0 charge_a=0 charge_b=0 selection_a=1-2 selection_b=3-7 scaling=1.10 benchmark_Eint=-0.426 benchmark_unit=kcal/mol group=Halogens
  H    0.267325563   0.325453737  -1.639389132
  H   -0.134202554   0.169338257  -1.035620119
  C   -0.404794661  -0.060937050   2.837011721
 Cl   -1.855847283  -0.532950128   1.920677789
 Cl    0.948266451  -1.125229449   2.391480480
 Cl   -0.730274296  -0.211057200   4.579074511
 Cl    0.014527090   1.624165926   2.454090855
