7
charge=0 charge_a=0 charge_b=0 selection_a=1-2 selection_b=3-7 scaling=0.80 benchmark_Eint=0.126 benchmark_unit=kcal/mol group=Halogens
  H    1.588716020   1.745670842  -2.149347471
  H    0.883901235   1.958858026  -2.054773083
  C    0.350609406   0.653154570   0.255176196
 Br   -1.242044903   1.636579170  -0.267517111
 Br    0.495924222  -1.100512908  -0.567185761
  H    0.311024794   0.512167734   1.324616361
  H    1.206228897   1.231912097  -0.057836427
