7
charge=0 charge_a=0 charge_b=0 selection_a=1-2 selection_b=3-7 scaling=0.95 benchmark_Eint=-0.776 benchmark_unit=kcal/mol group=Halogens
  H    1.588716020   1.745670842  -2.149347471
  H    0.883901235   1.958858026  -2.054773083
  C    0.141718352   0.443672767   0.490696713
 Br   -1.450935957   1.427097367  -0.031996594
 Br    0.287033168  -1.309994711  -0.331665244
  H    0.102133740   0.302685931   1.560136878
  H    0.997337843   1.022430294   0.177684090
