7
charge=0 charge_a=0 charge_b=0 selection_a=1-2 selection_b=3-7 scaling=2.00 benchmark_Eint=-0.062 benchmark_unit=kcal/mol group=Halogens
  H    1.588716020   1.745670842  -2.149347471
  H    0.883901235   1.958858026  -2.054773083
  C   -1.320519030  -1.022699858   2.139340330
 Br   -2.913173339  -0.039275258   1.616647023
 Br   -1.175204214  -2.776367336   1.316978373
  H   -1.360103642  -1.163686694   3.208780495
  H   -0.464899539  -0.443942331   1.826327707
