7
charge=0 charge_a=0 charge_b=0 selection_a=1-5 selection_b=6-7 scaling=1.05 benchmark_Eint=-0.511 benchmark_unit=kcal/mol group=Halogens
  C    0.018729869   1.105337139   0.080004933
  I    1.558250275  -0.210405433   0.782517923
  I   -1.809251441   0.155747151  -0.518274019
  H    0.406523346   1.625914187  -0.782631113
  H   -0.220952450   1.782496790   0.885947782
  H    3.942508562  -2.608941758   1.753470533
  H    4.279717611  -2.044161207   2.097365246
