25
charge=0 charge_a=0 charge_b=0 selection_a=1-5 selection_b=6-25 scaling=2.00 benchmark_Eint=-0.071 benchmark_unit=kcal/mol group=Halogens
  C   -0.083308808   0.567790757  -2.006053060
  F    1.079434765   0.846384449  -1.433439950
  F   -0.359136465  -0.718496756  -1.841927600
  F   -0.016253452   0.843938192  -3.300413160
  F   -1.037114657   1.298858297  -1.446572099
  C   -1.771999926  -1.631623236   4.644321367
  C   -0.450705429  -1.245576377   5.343098496
  C    0.741206153  -1.951114821   4.684083937
  C   -0.268006047   0.271563589   5.207638589
  C   -0.499819137  -1.608688556   6.832451864
  C   -2.135589139  -3.114668219   4.646234677
  H   -1.724875601  -1.281429645   3.610649544
  H   -2.580243970  -1.066935915   5.116569248
  H    0.686247035  -3.032367086   4.803060434
  H    0.786899446  -1.732145283   3.616850016
  H    1.678066539  -1.618373809   5.132471913
  H   -1.098371311   0.808111848   5.668820338
  H   -0.218923551   0.569229549   4.159736045
  H    0.652852385   0.598897752   5.691845046
  H   -1.351274409  -1.134044495   7.322598767
  H   -0.581389232  -2.684327147   6.983439866
  H    0.406222702  -1.273723945   7.338834682
  H   -1.386783218  -3.716218403   4.132391688
  H   -2.241017398  -3.505998704   5.657414267
  H   -3.085402897  -3.272887155   4.135759476
