26
charge=0 charge_a=0 charge_b=0 selection_a=1-12 selection_b=13-26 scaling=1.10 benchmark_Eint=-3.513 benchmark_unit=kcal/mol group=Halogens
  F    0.902658922  -1.553167806  -2.003010195
  C    0.471972903  -0.719765691  -1.060094649
  C   -0.595336461  -1.079924924  -0.250320897
  F   -1.189374648  -2.258540463  -0.417913146
  C   -1.039596941  -0.213141312   0.738002348
  F   -2.060615192  -0.559783318   1.517357021
  C   -0.415761844   1.013307956   0.916628944
  F   -0.837459190   1.841898298   1.868575457
  C    0.652044005   1.372850475   0.107440234
  F    1.256460352   2.544337751   0.284792071
  C    1.095872843   0.505908350  -0.880145025
  F    2.128882007   0.845123465  -1.647348684
  C    3.045978824   0.902734201   3.324609193
  C    3.626829476   0.037241893   2.210790159
  C    2.917916139  -1.306925799   2.063038674
  C    3.483214473  -2.164219062   0.934924136
  H    3.565059823   1.857377368   3.402031123
  H    3.123243168   0.401184892   4.290203483
  H    1.990151374   1.115657788   3.152411192
  H    4.689070948  -0.138332704   2.399082930
  H    3.579371913   0.577336906   1.261681590
  H    1.852156376  -1.133318049   1.895956887
  H    2.984877096  -1.852810794   3.007549456
  H    3.432770932  -1.643660445  -0.022190036
  H    2.938884806  -3.102589102   0.831300924
  H    4.531154714  -2.406370479   1.115878248
