17
charge=0 charge_a=0 charge_b=0 selection_a=1-2 selection_b=3-17 scaling=0.85 benchmark_Eint=-0.063 benchmark_unit=kcal/mol group=Halogens
  F    0.041957524  -0.066235436  -1.578266977
  F   -1.224610370   0.406761633  -1.942844976
  C    2.668774507   0.483156087   0.284879905
  C    2.104295452   0.335135213   1.708295548
  C    2.454883301  -0.897210950  -0.392478017
  C    0.989720591  -0.702857822   1.551160392
  C    1.605101129  -1.731518990   0.594547735
  H    2.114043952   1.252572525  -0.252122320
  H    3.713862939   0.788091977   0.283839831
  H    2.872755854  -0.055649836   2.379163623
  H    1.759294469   1.280317515   2.125442806
  H    1.940870707  -0.779740507  -1.347360147
  H    3.399829426  -1.390284644  -0.615279234
  H    0.669490495  -1.138841825   2.496718896
  H    0.114942436  -0.238559184   1.090201177
  H    0.859109453  -2.344197784   0.091025541
  H    2.248598474  -2.408773474   1.158607494
