17
charge=0 charge_a=0 charge_b=0 selection_a=1-2 selection_b=3-17 scaling=0.80 benchmark_Eint=0.699 benchmark_unit=kcal/mol group=Halogens
  F    0.041957524  -0.066235436  -1.578266977
  F   -1.224610370   0.406761633  -1.942844976
  C    2.587087188   0.504661219   0.204723411
  C    2.022608133   0.356640345   1.628139054
  C    2.373195982  -0.875705818  -0.472634511
  C    0.908033272  -0.681352690   1.471003898
  C    1.523413810  -1.710013858   0.514391241
  H    2.032356633   1.274077657  -0.332278814
  H    3.632175620   0.809597109   0.203683337
  H    2.791068535  -0.034144704   2.299007129
  H    1.677607150   1.301822647   2.045286312
  H    1.859183388  -0.758235375  -1.427516641
  H    3.318142107  -1.368779512  -0.695435728
  H    0.587803176  -1.117336693   2.416562402
  H    0.033255117  -0.217054052   1.010044683
  H    0.777422134  -2.322692652   0.010869047
  H    2.166911155  -2.387268342   1.078451000
