18
charge=0 charge_a=0 charge_b=0 selection_a=1-12 selection_b=13-18 scaling=0.85 benchmark_Eint=-0.364 benchmark_unit=kcal/mol group=Halogens
  F   -1.700836617  -1.956484499   1.572477550
  C   -0.937506155  -1.044168696   0.974784066
  C    0.174258221  -1.440297241   0.246415019
  F    0.477246448  -2.732669988   0.145091476
  C    0.960887659  -0.491845141  -0.388826569
  F    2.018287171  -0.873398081  -1.102196551
  C    0.633889222   0.852397960  -0.298761511
  F    1.378422645   1.762000766  -0.923692179
  C   -0.477682123   1.248551095   0.429869323
  F   -0.799613195   2.538206710   0.503755051
  C   -1.262281971   0.300397123   1.068051297
  F   -2.338975643   0.679214372   1.753473380
  C   -1.914011099  -0.950853562  -1.836666987
  C   -1.615815965   0.297158901  -2.163289865
  H   -1.313642861  -1.785963259  -2.171642598
  H   -2.773918320  -1.189379904  -1.225338354
  H   -0.759044391   0.535248021  -2.779171282
  H   -2.219294793   1.131817738  -1.832823758
