11
charge=0 charge_a=0 charge_b=0 selection_a=1-5 selection_b=6-11 scaling=0.95 benchmark_Eint=-1.281 benchmark_unit=kcal/mol group=Halogens
  C    0.209159663   0.534458491  -2.004653856
  F    1.513990608   0.299829649  -1.956087562
  F   -0.451767162  -0.569512361  -1.693466733
  F   -0.121267252   0.913647027  -3.233817816
  F   -0.100499552   1.496869687  -1.150257702
  C   -1.935199251   0.016803038   1.919745685
  C   -0.770524714  -0.186424371   1.696495873
  C    0.547899244  -0.414716227   1.438632186
  C    1.711049498  -0.613974347   1.204121951
  H   -2.961998860   0.196013778   2.116797985
  H    2.736103469  -0.788926699   0.994760006
