11
charge=0 charge_a=0 charge_b=0 selection_a=1-5 selection_b=6-11 scaling=1.05 benchmark_Eint=-1.203 benchmark_unit=kcal/mol group=Halogens
  C    0.209159663   0.534458491  -2.004653856
  F    1.513990608   0.299829649  -1.956087562
  F   -0.451767162  -0.569512361  -1.693466733
  F   -0.121267252   0.913647027  -3.233817816
  F   -0.100499552   1.496869687  -1.150257702
  C   -1.965208255  -0.061039894   2.252948215
  C   -0.800533718  -0.264267303   2.029698403
  C    0.517890240  -0.492559159   1.771834716
  C    1.681040494  -0.691817279   1.537324481
  H   -2.992007864   0.118170846   2.450000515
  H    2.706094465  -0.866769631   1.327962536
