20
charge=0 charge_a=0 charge_b=0 selection_a=1-5 selection_b=6-20 scaling=1.50 benchmark_Eint=-1.155 benchmark_unit=kcal/mol group=Halogens
  C   -0.456887277   0.150513154  -1.740769564
  F   -1.153980240   1.219679731  -1.177937139
  H    0.414746650  -0.059107140  -1.126813483
  H   -0.159910310   0.427913228  -2.750872215
  H   -1.113258880  -0.716797517  -1.763391171
  C    0.332945512  -0.857073018   2.841606698
  C   -0.720554756   0.094178353   3.336139602
  C    1.653955605  -0.439349289   2.680036234
  C    2.620610699  -1.299824362   2.175723204
  C    2.282413467  -2.601350163   1.823401638
  C    0.971922880  -3.032769855   1.986602297
  C    0.009735730  -2.167403484   2.492287053
  H   -1.137248919   0.661005748   2.502178529
  H   -0.308096841   0.807966397   4.047770521
  H   -1.538888797  -0.436486564   3.820113089
  H    1.925577526   0.572946999   2.948283844
  H    3.638567108  -0.954777524   2.059353525
  H    3.033468730  -3.273241735   1.433097199
  H    0.698529187  -4.045044694   1.722989885
  H   -1.008478111  -2.512111529   2.615541684
