26
charge=0 charge_a=0 charge_b=0 selection_a=1-12 selection_b=13-26 scaling=0.90 benchmark_Eint=-3.406 benchmark_unit=kcal/mol group=Halogens
  F    0.902658922  -1.553167806  -2.003010195
  C    0.471972903  -0.719765691  -1.060094649
  C   -0.595336461  -1.079924924  -0.250320897
  F   -1.189374648  -2.258540463  -0.417913146
  C   -1.039596941  -0.213141312   0.738002348
  F   -2.060615192  -0.559783318   1.517357021
  C   -0.415761844   1.013307956   0.916628944
  F   -0.837459190   1.841898298   1.868575457
  C    0.652044005   1.372850475   0.107440234
  F    1.256460352   2.544337751   0.284792071
  C    1.095872843   0.505908350  -0.880145025
  F    2.128882007   0.845123465  -1.647348684
  C    2.575003904   1.015826991   3.004293093
  C    3.155854556   0.150334683   1.890474059
  C    2.446941219  -1.193833009   1.742722574
  C    3.012239553  -2.051126272   0.614608036
  H    3.094084903   1.970470158   3.081715023
  H    2.652268248   0.514277682   3.969887383
  H    1.519176454   1.228750578   2.832095092
  H    4.218096028  -0.025239914   2.078766830
  H    3.108396993   0.690429696   0.941365490
  H    1.381181456  -1.020225259   1.575640787
  H    2.513902176  -1.739718004   2.687233356
  H    2.961796012  -1.530567655  -0.342506136
  H    2.467909886  -2.989496312   0.510984824
  H    4.060179794  -2.293277689   0.795562148
