20
charge=0 charge_a=0 charge_b=0 selection_a=1-5 selection_b=6-20 scaling=1.05 benchmark_Eint=-3.230 benchmark_unit=kcal/mol group=Halogens
  C   -0.456887277   0.150513154  -1.740769564
  F   -1.153980240   1.219679731  -1.177937139
  H    0.414746650  -0.059107140  -1.126813483
  H   -0.159910310   0.427913228  -2.750872215
  H   -1.113258880  -0.716797517  -1.763391171
  C   -0.115324581  -0.323587319   1.874159407
  C   -1.168824849   0.627664052   2.368692311
  C    1.205685512   0.094136410   1.712588943
  C    2.172340606  -0.766338663   1.208275913
  C    1.834143374  -2.067864464   0.855954347
  C    0.523652787  -2.499284156   1.019155006
  C   -0.438534363  -1.633917785   1.524839762
  H   -1.585519012   1.194491447   1.534731238
  H   -0.756366934   1.341452096   3.080323230
  H   -1.987158890   0.096999135   2.852665798
  H    1.477307433   1.106432698   1.980836553
  H    3.190297015  -0.421291825   1.091906234
  H    2.585198637  -2.739756036   0.465649908
  H    0.250259094  -3.511558995   0.755542594
  H   -1.456748204  -1.978625830   1.648094393
