17
charge=0 charge_a=0 charge_b=0 selection_a=1-2 selection_b=3-17 scaling=1.50 benchmark_Eint=-0.298 benchmark_unit=kcal/mol group=Halogens
  F    0.041957524  -0.066235436  -1.578266977
  F   -1.224610370   0.406761633  -1.942844976
  C    3.730709651   0.203589360   1.326914315
  C    3.166230596   0.055568486   2.750329958
  C    3.516818445  -1.176777677   0.649556393
  C    2.051655735  -0.982424549   2.593194802
  C    2.667036273  -2.011085717   1.636582145
  H    3.175979096   0.973005798   0.789912090
  H    4.775798083   0.508525250   1.325874241
  H    3.934690998  -0.335216563   3.421198033
  H    2.821229613   1.000750788   3.167477216
  H    3.002805851  -1.059307234  -0.305325737
  H    4.461764570  -1.669851371   0.426755176
  H    1.731425639  -1.418408552   3.538753306
  H    1.176877580  -0.518125911   2.132235587
  H    1.921044597  -2.623764511   1.133059951
  H    3.310533618  -2.688340201   2.200641904
