26
charge=0 charge_a=0 charge_b=0 selection_a=1-12 selection_b=13-26 scaling=0.80 benchmark_Eint=1.892 benchmark_unit=kcal/mol group=Halogens
  F    0.902658922  -1.553167806  -2.003010195
  C    0.471972903  -0.719765691  -1.060094649
  C   -0.595336461  -1.079924924  -0.250320897
  F   -1.189374648  -2.258540463  -0.417913146
  C   -1.039596941  -0.213141312   0.738002348
  F   -2.060615192  -0.559783318   1.517357021
  C   -0.415761844   1.013307956   0.916628944
  F   -0.837459190   1.841898298   1.868575457
  C    0.652044005   1.372850475   0.107440234
  F    1.256460352   2.544337751   0.284792071
  C    1.095872843   0.505908350  -0.880145025
  F    2.128882007   0.845123465  -1.647348684
  C    2.339516445   1.072373386   2.844135043
  C    2.920367097   0.206881078   1.730316009
  C    2.211453760  -1.137286614   1.582564524
  C    2.776752094  -1.994579877   0.454449986
  H    2.858597444   2.027016553   2.921556973
  H    2.416780789   0.570824077   3.809729333
  H    1.283688995   1.285296973   2.671937042
  H    3.982608569   0.031306481   1.918608780
  H    2.872909534   0.746976091   0.781207440
  H    1.145693997  -0.963678864   1.415482737
  H    2.278414717  -1.683171609   2.527075306
  H    2.726308553  -1.474021260  -0.502664186
  H    2.232422427  -2.932949917   0.350826774
  H    3.824692335  -2.236731294   0.635404098
