17
charge=0 charge_a=0 charge_b=0 selection_a=1-2 selection_b=3-17 scaling=1.10 benchmark_Eint=-0.809 benchmark_unit=kcal/mol group=Halogens
  F    0.041957524  -0.066235436  -1.578266977
  F   -1.224610370   0.406761633  -1.942844976
  C    3.077211101   0.375630422   0.685662370
  C    2.512732046   0.227609548   2.109078013
  C    2.863319895  -1.004736615   0.008304448
  C    1.398157185  -0.810383487   1.951942857
  C    2.013537723  -1.839044655   0.995330200
  H    2.522480546   1.145046860   0.148660145
  H    4.122299533   0.680566312   0.684622296
  H    3.281192448  -0.163175501   2.779946088
  H    2.167731063   1.172791850   2.526225271
  H    2.349307301  -0.887266172  -0.946577682
  H    3.808266020  -1.497810309  -0.214496769
  H    1.077927089  -1.246367490   2.897501361
  H    0.523379030  -0.346084849   1.490983642
  H    1.267546047  -2.451723449   0.491808006
  H    2.657035068  -2.516299139   1.559389959
