11
charge=0 charge_a=0 charge_b=0 selection_a=1-5 selection_b=6-11 scaling=1.00 benchmark_Eint=-1.307 benchmark_unit=kcal/mol group=Halogens
  C    0.209159663   0.534458491  -2.004653856
  F    1.513990608   0.299829649  -1.956087562
  F   -0.451767162  -0.569512361  -1.693466733
  F   -0.121267252   0.913647027  -3.233817816
  F   -0.100499552   1.496869687  -1.150257702
  C   -1.950203753  -0.022118428   2.086346950
  C   -0.785529216  -0.225345837   1.863097138
  C    0.532894742  -0.453637693   1.605233451
  C    1.696044996  -0.652895813   1.370723216
  H   -2.977003362   0.157092312   2.283399250
  H    2.721098967  -0.827848165   1.161361271
