18
charge=0 charge_a=0 charge_b=0 selection_a=1-12 selection_b=13-18 scaling=1.05 benchmark_Eint=-3.102 benchmark_unit=kcal/mol group=Halogens
  F   -1.700836617  -1.956484499   1.572477550
  C   -0.937506155  -1.044168696   0.974784066
  C    0.174258221  -1.440297241   0.246415019
  F    0.477246448  -2.732669988   0.145091476
  C    0.960887659  -0.491845141  -0.388826569
  F    2.018287171  -0.873398081  -1.102196551
  C    0.633889222   0.852397960  -0.298761511
  F    1.378422645   1.762000766  -0.923692179
  C   -0.477682123   1.248551095   0.429869323
  F   -0.799613195   2.538206710   0.503755051
  C   -1.262281971   0.300397123   1.068051297
  F   -2.338975643   0.679214372   1.753473380
  C   -2.294491619  -1.005330201  -2.388124483
  C   -1.996296485   0.242682262  -2.714747361
  H   -1.694123381  -1.840439898  -2.723100094
  H   -3.154398840  -1.243856543  -1.776795850
  H   -1.139524911   0.480771382  -3.330628778
  H   -2.599775313   1.077341099  -2.384281254
