25
charge=0 charge_a=0 charge_b=0 selection_a=1-5 selection_b=6-25 scaling=0.95 benchmark_Eint=-1.159 benchmark_unit=kcal/mol group=Halogens
  C   -0.083308808   0.567790757  -2.006053060
  F    1.079434765   0.846384449  -1.433439950
  F   -0.359136465  -0.718496756  -1.841927600
  F   -0.016253452   0.843938192  -3.300413160
  F   -1.037114657   1.298858297  -1.446572099
  C   -1.513072550  -0.780283227   1.742516655
  C   -0.191778053  -0.394236368   2.441293784
  C    1.000133529  -1.099774812   1.782279225
  C   -0.009078671   1.122903598   2.305833877
  C   -0.240891761  -0.757348547   3.930647152
  C   -1.876661763  -2.263328210   1.744429965
  H   -1.465948225  -0.430089636   0.708844832
  H   -2.321316594  -0.215595906   2.214764536
  H    0.945174411  -2.181027077   1.901255722
  H    1.045826822  -0.880805274   0.715045304
  H    1.936993915  -0.767033800   2.230667201
  H   -0.839443935   1.659451857   2.767015626
  H    0.040003825   1.420569558   1.257931333
  H    0.911779761   1.450237761   2.790040334
  H   -1.092347033  -0.282704486   4.420794055
  H   -0.322461856  -1.832987138   4.081635154
  H    0.665150078  -0.422383936   4.437029970
  H   -1.127855842  -2.864878394   1.230586976
  H   -1.982090022  -2.654658695   2.755609555
  H   -2.826475521  -2.421547146   1.233954764
