25
charge=0 charge_a=0 charge_b=0 selection_a=1-5 selection_b=6-25 scaling=0.85 benchmark_Eint=-0.487 benchmark_unit=kcal/mol group=Halogens
  C   -0.083308808   0.567790757  -2.006053060
  F    1.079434765   0.846384449  -1.433439950
  F   -0.359136465  -0.718496756  -1.841927600
  F   -0.016253452   0.843938192  -3.300413160
  F   -1.037114657   1.298858297  -1.446572099
  C   -1.488412800  -0.699203226   1.466154302
  C   -0.167118303  -0.313156367   2.164931431
  C    1.024793279  -1.018694811   1.505916872
  C    0.015581079   1.203983599   2.029471524
  C   -0.216232011  -0.676268546   3.654284799
  C   -1.852002013  -2.182248209   1.468067612
  H   -1.441288475  -0.349009635   0.432482479
  H   -2.296656844  -0.134515905   1.938402183
  H    0.969834161  -2.099947076   1.624893369
  H    1.070486572  -0.799725273   0.438682951
  H    1.961653665  -0.685953799   1.954304848
  H   -0.814784185   1.740531858   2.490653273
  H    0.064663575   1.501649559   0.981568980
  H    0.936439511   1.531317762   2.513677981
  H   -1.067687283  -0.201624485   4.144431702
  H   -0.297802106  -1.751907137   3.805272801
  H    0.689809828  -0.341303935   4.160667617
  H   -1.103196092  -2.783798393   0.954224623
  H   -1.957430272  -2.573578694   2.479247202
  H   -2.801815771  -2.340467145   0.957592411
