23
charge=0 charge_a=0 charge_b=0 selection_a=1-5 selection_b=6-23 scaling=0.80 benchmark_Eint=0.404 benchmark_unit=kcal/mol group=Halogens
  C    0.713633681  -0.023864749  -2.159336813
 Cl    2.415510754   0.386552179  -1.758010343
  H    0.462450622  -0.949490952  -1.656027322
  H    0.639811328  -0.133747689  -3.235090732
  H    0.080612899   0.781111925  -1.806506879
  C   -1.496641597   2.167171598  -0.004803627
  C   -0.181411497   2.487852695   0.394463862
  C    0.705469606   1.494494306   0.713520490
  C    0.324937880   0.134197643   0.643529616
  C    1.229372588  -0.915072197   0.928403877
  C    0.842874804  -2.223867516   0.815188807
  C   -0.472180806  -2.546241672   0.416706305
  C   -1.372965387  -1.552921451   0.137060021
  C   -1.003095040  -0.190848902   0.236674641
  C   -1.897231144   0.859364178  -0.078829269
  H   -2.187256200   2.960462195  -0.253466132
  H    0.124090503   3.523245835   0.443352152
  H    1.717749621   1.735852870   1.005763230
  H    2.239748007  -0.664641594   1.219652431
  H    1.545852023  -3.016731937   1.027227091
  H   -0.765079937  -3.583121762   0.331951603
  H   -2.380662189  -1.797679918  -0.170873901
  H   -2.904098443   0.611170007  -0.386724762
