17
charge=0 charge_a=0 charge_b=0 selection_a=1-2 selection_b=3-17 scaling=2.00 benchmark_Eint=-0.059 benchmark_unit=kcal/mol group=Halogens
 Cl    0.608276002   0.990723756  -1.510669565
 Cl   -0.401979034  -0.698365839  -1.888663869
  C   -0.861194560  -1.230954891   6.887510035
  C   -0.168426593  -0.115987751   6.050310353
  C    0.749208772  -1.013893519   5.200143635
  C    0.074553046  -2.127397155   4.936057958
  C   -1.305906234  -1.993212807   5.604888656
  C   -2.041923705  -0.837077344   4.903017280
  C   -1.367192107   0.276350319   5.167170966
  H   -1.697515189  -0.864682640   7.479673109
  H   -0.166246803  -1.798219952   7.503550453
  H    0.316825410   0.693594572   6.585202088
  H    1.727672569  -0.730228929   4.848482841
  H    0.377848585  -2.958139902   4.320148478
  H   -1.868345356  -2.912530757   5.729498655
  H   -2.904926724  -0.956741703   4.268691647
  H   -1.554952311   1.271016369   4.797185110
