17
charge=0 charge_a=0 charge_b=0 selection_a=1-2 selection_b=3-17 scaling=0.80 benchmark_Eint=3.267 benchmark_unit=kcal/mol group=Halogens
 Cl    0.608276002   0.990723756  -1.510669565
 Cl   -0.401979034  -0.698365839  -1.888663869
  C   -0.404634569  -0.578397605   2.790133427
  C    0.288133398   0.536569535   1.952933745
  C    1.205768763  -0.361336233   1.102767027
  C    0.531113037  -1.474839869   0.838681350
  C   -0.849346243  -1.340655521   1.507512048
  C   -1.585363714  -0.184520058   0.805640672
  C   -0.910632116   0.928907605   1.069794358
  H   -1.240955198  -0.212125354   3.382296501
  H    0.290313188  -1.145662666   3.406173845
  H    0.773385401   1.346151858   2.487825480
  H    2.184232560  -0.077671643   0.751106233
  H    0.834408576  -2.305582616   0.222771870
  H   -1.411785365  -2.259973471   1.632122047
  H   -2.448366733  -0.304184417   0.171315039
  H   -1.098392320   1.923573655   0.699808502
