9
charge=0 charge_a=0 charge_b=0 selection_a=1-5 selection_b=6-9 scaling=0.85 benchmark_Eint=-0.251 benchmark_unit=kcal/mol group=Halogens
  C   -0.156531436   0.977243913  -2.489429602
 Cl    0.938914122  -0.405457451  -2.288443609
 Cl   -1.790014835   0.522339380  -1.927725186
 Cl   -0.235543948   1.435415802  -4.205051775
 Cl    0.432065764   2.350394942  -1.529520878
  C    0.006120947   0.040677055   1.023925670
  C    0.859505516  -0.063492051   1.854652014
  H   -0.748958785   0.134063535   0.283784832
  H    1.617380780  -0.156044980   2.591650352
