23
charge=0 charge_a=0 charge_b=0 selection_a=1-5 selection_b=6-23 scaling=1.05 benchmark_Eint=-2.626 benchmark_unit=kcal/mol group=Halogens
  C   -0.087325691   0.127539994  -1.636274613
 Cl    0.599070979  -1.423767168  -1.113154289
 Cl   -1.700850874   0.383129484  -0.941593903
 Cl    1.000667249   1.475366178  -1.247680594
  H   -0.194848705   0.092636136  -2.709980501
  C    1.798493824   0.064824788   2.657708560
  C    1.304355070   1.439572538   3.112818290
  C   -0.178377472   1.637166650   2.790893806
  C   -1.034392376   0.511542273   3.375108116
  C   -0.539722663  -0.862857865   2.919610300
  C    0.942741348  -1.060735183   3.242490704
  H    2.844512734  -0.071902809   2.938046306
  H    1.758616989   0.013933327   1.567156025
  H    1.899041620   2.226813475   2.645879957
  H    1.453186277   1.535202648   4.192937090
  H   -0.308546910   1.658479481   1.706489377
  H   -0.520071799   2.604050903   3.164819456
  H   -2.079735601   0.648171416   3.092224190
  H   -0.997653843   0.562399128   4.467820684
  H   -0.685402880  -0.955481903   1.840878620
  H   -1.135506876  -1.651062689   3.383502549
  H    1.284079059  -2.027141445   2.867030859
  H    1.073795220  -1.084144955   4.328881724
