9
charge=0 charge_a=0 charge_b=0 selection_a=1-5 selection_b=6-9 scaling=0.80 benchmark_Eint=0.989 benchmark_unit=kcal/mol group=Halogens
  C   -0.156531436   0.977243913  -2.489429602
 Cl    0.938914122  -0.405457451  -2.288443609
 Cl   -1.790014835   0.522339380  -1.927725186
 Cl   -0.235543948   1.435415802  -4.205051775
 Cl    0.432065764   2.350394942  -1.529520878
  C   -0.014941650   0.075562980   0.885148672
  C    0.838442919  -0.028606126   1.715875016
  H   -0.770021382   0.168949460   0.145007834
  H    1.596318183  -0.121159055   2.452873354
