9
charge=0 charge_a=0 charge_b=0 selection_a=1-5 selection_b=6-9 scaling=1.05 benchmark_Eint=-1.308 benchmark_unit=kcal/mol group=Halogens
  C   -0.156531436   0.977243913  -2.489429602
 Cl    0.938914122  -0.405457451  -2.288443609
 Cl   -1.790014835   0.522339380  -1.927725186
 Cl   -0.235543948   1.435415802  -4.205051775
 Cl    0.432065764   2.350394942  -1.529520878
  C    0.090371338  -0.098866645   1.579033663
  C    0.943755907  -0.203035751   2.409760007
  H   -0.664708394  -0.005480165   0.838892825
  H    1.701631171  -0.295588680   3.146758345
