9
charge=0 charge_a=0 charge_b=0 selection_a=1-5 selection_b=6-9 scaling=1.10 benchmark_Eint=-1.219 benchmark_unit=kcal/mol group=Halogens
  C   -0.156531436   0.977243913  -2.489429602
 Cl    0.938914122  -0.405457451  -2.288443609
 Cl   -1.790014835   0.522339380  -1.927725186
 Cl   -0.235543948   1.435415802  -4.205051775
 Cl    0.432065764   2.350394942  -1.529520878
  C    0.111433935  -0.133752570   1.717810662
  C    0.964818504  -0.237921676   2.548537006
  H   -0.643645797  -0.040366090   0.977669824
  H    1.722693768  -0.330474605   3.285535344
