23
charge=0 charge_a=0 charge_b=0 selection_a=1-5 selection_b=6-23 scaling=1.00 benchmark_Eint=-4.397 benchmark_unit=kcal/mol group=Halogens
  C    0.713633681  -0.023864749  -2.159336813
 Cl    2.415510754   0.386552179  -1.758010343
  H    0.462450622  -0.949490952  -1.656027322
  H    0.639811328  -0.133747689  -3.235090732
  H    0.080612899   0.781111925  -1.806506879
  C   -1.906617937   2.113953713   0.419874709
  C   -0.591387837   2.434634810   0.819142198
  C    0.295493266   1.441276421   1.138198826
  C   -0.085038460   0.080979758   1.068207952
  C    0.819396248  -0.968290082   1.353082213
  C    0.432898464  -2.277085401   1.239867143
  C   -0.882157146  -2.599459557   0.841384641
  C   -1.782941727  -1.606139336   0.561738357
  C   -1.413071380  -0.244066787   0.661352977
  C   -2.307207484   0.806146293   0.345849067
  H   -2.597232540   2.907244310   0.171212204
  H   -0.285885837   3.470027950   0.868030488
  H    1.307773281   1.682634985   1.430441566
  H    1.829771667  -0.717859479   1.644330767
  H    1.135875683  -3.069949822   1.451905427
  H   -1.175056277  -3.636339647   0.756629939
  H   -2.790638529  -1.850897803   0.253804435
  H   -3.314074783   0.557952122   0.037953574
