22
charge=0 charge_a=0 charge_b=0 selection_a=1-5 selection_b=6-22 scaling=2.00 benchmark_Eint=-0.183 benchmark_unit=kcal/mol group=Halogens
  C   -1.540123820   2.068658860  -1.033077515
 Cl    0.052743238   2.068381259  -1.859812056
  H   -1.862290411   1.040463708  -0.919935746
  H   -2.239042315   2.627103525  -1.644787255
  H   -1.418780588   2.536232627  -0.063087778
  C    0.222755658  -3.313438262   1.677722645
  C    1.098012586  -3.029315312   2.904515071
  C    0.881048577  -1.583379868   3.367259921
  C    0.720035452  -3.991240251   4.036593670
  C    2.572247881  -3.226996672   2.532511729
  H   -0.834096033  -3.173713120   1.912261391
  H    0.352912825  -4.340836951   1.335211628
  H    0.481517073  -2.649966419   0.852506958
  H   -0.164609133  -1.409383279   3.626915374
  H    1.159925635  -0.878482401   2.584249011
  H    1.483997377  -1.362018244   4.248891982
  H   -0.326115712  -3.869138267   4.321322454
  H    1.331025448  -3.812348319   4.922391410
  H    0.865384214  -5.028947252   3.733302956
  H    2.864240032  -2.551890826   1.727511077
  H    2.757558425  -4.248809136   2.198569101
  H    3.220700782  -3.031238818   3.387582575
