23
charge=0 charge_a=0 charge_b=0 selection_a=1-5 selection_b=6-23 scaling=0.85 benchmark_Eint=-2.324 benchmark_unit=kcal/mol group=Halogens
  C    0.713633681  -0.023864749  -2.159336813
 Cl    2.415510754   0.386552179  -1.758010343
  H    0.462450622  -0.949490952  -1.656027322
  H    0.639811328  -0.133747689  -3.235090732
  H    0.080612899   0.781111925  -1.806506879
  C   -1.599135682   2.153867127   0.101365957
  C   -0.283905582   2.474548224   0.500633446
  C    0.602975521   1.481189835   0.819690074
  C    0.222443795   0.120893172   0.749699200
  C    1.126878503  -0.928376668   1.034573461
  C    0.740380719  -2.237171987   0.921358391
  C   -0.574674891  -2.559546143   0.522875889
  C   -1.475459472  -1.566225922   0.243229605
  C   -1.105589125  -0.204153373   0.342844225
  C   -1.999725229   0.846059707   0.027340315
  H   -2.289750285   2.947157724  -0.147296548
  H    0.021596418   3.509941364   0.549521736
  H    1.615255536   1.722548399   1.111932814
  H    2.137253922  -0.677946065   1.325822015
  H    1.443357938  -3.030036408   1.133396675
  H   -0.867574022  -3.596426233   0.438121187
  H   -2.483156274  -1.810984389  -0.064704317
  H   -3.006592528   0.597865536  -0.280555178
