17
charge=0 charge_a=0 charge_b=0 selection_a=1-2 selection_b=3-17 scaling=1.05 benchmark_Eint=-2.035 benchmark_unit=kcal/mol group=Halogens
 Cl    0.608276002   0.990723756  -1.510669565
 Cl   -0.401979034  -0.698365839  -1.888663869
  C   -0.499751234  -0.714347040   3.643753553
  C    0.193016733   0.400620100   2.806553871
  C    1.110652098  -0.497285668   1.956387153
  C    0.435996372  -1.610789304   1.692301476
  C   -0.944462908  -1.476604956   2.361132174
  C   -1.680480379  -0.320469493   1.659260798
  C   -1.005748781   0.792958170   1.923414484
  H   -1.336071863  -0.348074789   4.235916627
  H    0.195196523  -1.281612101   4.259793971
  H    0.678268736   1.210202423   3.341445606
  H    2.089115895  -0.213621078   1.604726359
  H    0.739291911  -2.441532051   1.076391996
  H   -1.506902030  -2.395922906   2.485742173
  H   -2.543483398  -0.440133852   1.024935165
  H   -1.193508985   1.787624220   1.553428628
