23
charge=0 charge_a=0 charge_b=0 selection_a=1-5 selection_b=6-23 scaling=1.50 benchmark_Eint=-1.426 benchmark_unit=kcal/mol group=Halogens
  C    0.713633681  -0.023864749  -2.159336813
 Cl    2.415510754   0.386552179  -1.758010343
  H    0.462450622  -0.949490952  -1.656027322
  H    0.639811328  -0.133747689  -3.235090732
  H    0.080612899   0.781111925  -1.806506879
  C   -2.931558786   1.980909001   1.481570549
  C   -1.616328686   2.301590098   1.880838038
  C   -0.729447583   1.308231709   2.199894666
  C   -1.109979309  -0.052064954   2.129903792
  C   -0.205544601  -1.101334794   2.414778053
  C   -0.592042385  -2.410130113   2.301562983
  C   -1.907097995  -2.732504269   1.903080481
  C   -2.807882576  -1.739184048   1.623434197
  C   -2.438012229  -0.377111499   1.723048817
  C   -3.332148333   0.673101581   1.407544907
  H   -3.622173389   2.774199598   1.232908044
  H   -1.310826686   3.336983238   1.929726328
  H    0.282832432   1.549590273   2.492137406
  H    0.804830818  -0.850904191   2.706026607
  H    0.110934834  -3.202994534   2.513601267
  H   -2.199997126  -3.769384359   1.818325779
  H   -3.815579378  -1.983942515   1.315500275
  H   -4.339015632   0.424907410   1.099649414
