23
charge=0 charge_a=0 charge_b=0 selection_a=1-5 selection_b=6-23 scaling=2.00 benchmark_Eint=-0.449 benchmark_unit=kcal/mol group=Halogens
  C    0.713633681  -0.023864749  -2.159336813
 Cl    2.415510754   0.386552179  -1.758010343
  H    0.462450622  -0.949490952  -1.656027322
  H    0.639811328  -0.133747689  -3.235090732
  H    0.080612899   0.781111925  -1.806506879
  C   -3.956499636   1.847864289   2.543266388
  C   -2.641269536   2.168545386   2.942533877
  C   -1.754388433   1.175186997   3.261590505
  C   -2.134920159  -0.185109666   3.191599631
  C   -1.230485451  -1.234379506   3.476473892
  C   -1.616983235  -2.543174825   3.363258822
  C   -2.932038845  -2.865548981   2.964776320
  C   -3.832823426  -1.872228760   2.685130036
  C   -3.462953079  -0.510156211   2.784744656
  C   -4.357089183   0.540056869   2.469240746
  H   -4.647114239   2.641154886   2.294603883
  H   -2.335767536   3.203938526   2.991422167
  H   -0.742108418   1.416545561   3.553833245
  H   -0.220110032  -0.983948903   3.767722446
  H   -0.914006016  -3.336039246   3.575297106
  H   -3.224937976  -3.902429071   2.880021618
  H   -4.840520228  -2.116987227   2.377196114
  H   -5.363956482   0.291862698   2.161345253
