9
charge=0 charge_a=0 charge_b=0 selection_a=1-5 selection_b=6-9 scaling=0.90 benchmark_Eint=-0.921 benchmark_unit=kcal/mol group=Halogens
  C   -0.156531436   0.977243913  -2.489429602
 Cl    0.938914122  -0.405457451  -2.288443609
 Cl   -1.790014835   0.522339380  -1.927725186
 Cl   -0.235543948   1.435415802  -4.205051775
 Cl    0.432065764   2.350394942  -1.529520878
  C    0.027183545   0.005791130   1.162702668
  C    0.880568114  -0.098377976   1.993429012
  H   -0.727896187   0.099177610   0.422561830
  H    1.638443378  -0.190930905   2.730427350
