17
charge=0 charge_a=0 charge_b=0 selection_a=1-2 selection_b=3-17 scaling=1.50 benchmark_Eint=-0.384 benchmark_unit=kcal/mol group=Halogens
 Cl    0.608276002   0.990723756  -1.510669565
 Cl   -0.401979034  -0.698365839  -1.888663869
  C   -0.670961230  -0.959056022   5.180269782
  C    0.021806737   0.155911118   4.343070100
  C    0.939442102  -0.741994650   3.492903382
  C    0.264786376  -1.855498286   3.228817705
  C   -1.115672904  -1.721313938   3.897648403
  C   -1.851690375  -0.565178475   3.195777027
  C   -1.176958777   0.548249188   3.459930713
  H   -1.507281859  -0.592783771   5.772432856
  H    0.023986527  -1.526321083   5.796310200
  H    0.507058740   0.965493441   4.877961835
  H    1.917905899  -0.458330060   3.141242588
  H    0.568081915  -2.686241033   2.612908225
  H   -1.678112026  -2.640631888   4.022258402
  H   -2.714693394  -0.684842834   2.561451394
  H   -1.364718981   1.542915238   3.089944857
