22
charge=0 charge_a=0 charge_b=0 selection_a=1-5 selection_b=6-22 scaling=1.25 benchmark_Eint=-1.357 benchmark_unit=kcal/mol group=Halogens
  C   -1.540123820   2.068658860  -1.033077515
 Cl    0.052743238   2.068381259  -1.859812056
  H   -1.862290411   1.040463708  -0.919935746
  H   -2.239042315   2.627103525  -1.644787255
  H   -1.418780588   2.536232627  -0.063087778
  C   -0.199473421  -1.914459077   0.440509543
  C    0.675783507  -1.630336127   1.667301969
  C    0.458819498  -0.184400683   2.130046819
  C    0.297806373  -2.592261066   2.799380568
  C    2.150018802  -1.828017487   1.295298627
  H   -1.256325112  -1.774733935   0.675048289
  H   -0.069316254  -2.941857766   0.097998526
  H    0.059287994  -1.250987234  -0.384706144
  H   -0.586838212  -0.010404094   2.389702272
  H    0.737696556   0.520496784   1.347035909
  H    1.061768298   0.036960941   3.011678880
  H   -0.748344791  -2.470159082   3.084109352
  H    0.908796369  -2.413369134   3.685178308
  H    0.443155135  -3.629968067   2.496089854
  H    2.442010953  -1.152911641   0.490297975
  H    2.335329346  -2.849829951   0.961355999
  H    2.798471703  -1.632259633   2.150369473
