23
charge=0 charge_a=0 charge_b=0 selection_a=1-5 selection_b=6-23 scaling=0.90 benchmark_Eint=-1.931 benchmark_unit=kcal/mol group=Halogens
  C   -0.087325691   0.127539994  -1.636274613
 Cl    0.599070979  -1.423767168  -1.113154289
 Cl   -1.700850874   0.383129484  -0.941593903
 Cl    1.000667249   1.475366178  -1.247680594
  H   -0.194848705   0.092636136  -2.709980501
  C    1.751756181   0.048730946   2.194949199
  C    1.257617427   1.423478696   2.650058929
  C   -0.225115115   1.621072808   2.328134445
  C   -1.081130019   0.495448431   2.912348755
  C   -0.586460306  -0.878951707   2.456850939
  C    0.896003705  -1.076829025   2.779731343
  H    2.797775091  -0.087996651   2.475286945
  H    1.711879346  -0.002160515   1.104396664
  H    1.852303977   2.210719633   2.183120596
  H    1.406448634   1.519108806   3.730177729
  H   -0.355284553   1.642385639   1.243730016
  H   -0.566809442   2.587957061   2.702060095
  H   -2.126473244   0.632077574   2.629464829
  H   -1.044391486   0.546305286   4.005061323
  H   -0.732140523  -0.971575745   1.378119259
  H   -1.182244519  -1.667156531   2.920743188
  H    1.237341416  -2.043235287   2.404271498
  H    1.027057577  -1.100238797   3.866122363
