17
charge=0 charge_a=0 charge_b=0 selection_a=1-2 selection_b=3-17 scaling=1.25 benchmark_Eint=-1.077 benchmark_unit=kcal/mol group=Halogens
 Cl    0.608276002   0.990723756  -1.510669565
 Cl   -0.401979034  -0.698365839  -1.888663869
  C   -0.575844566  -0.823106588   4.326649655
  C    0.116923401   0.291860552   3.489449973
  C    1.034558766  -0.606045216   2.639283255
  C    0.359903040  -1.719548852   2.375197578
  C   -1.020556240  -1.585364504   3.044028276
  C   -1.756573711  -0.429229041   2.342156900
  C   -1.081842113   0.684198622   2.606310586
  H   -1.412165195  -0.456834337   4.918812729
  H    0.119103191  -1.390371649   4.942690073
  H    0.602175404   1.101442875   4.024341708
  H    2.013022563  -0.322380626   2.287622461
  H    0.663198579  -2.550291599   1.759288098
  H   -1.582995362  -2.504682454   3.168638275
  H   -2.619576730  -0.548893400   1.707831267
  H   -1.269602317   1.678864672   2.236324730
