22
charge=0 charge_a=0 charge_b=0 selection_a=1-5 selection_b=6-22 scaling=0.85 benchmark_Eint=-1.178 benchmark_unit=kcal/mol group=Halogens
  C   -1.540123820   2.068658860  -1.033077515
 Cl    0.052743238   2.068381259  -1.859812056
  H   -1.862290411   1.040463708  -0.919935746
  H   -2.239042315   2.627103525  -1.644787255
  H   -1.418780588   2.536232627  -0.063087778
  C   -0.424662263  -1.168336845  -0.219337446
  C    0.450594665  -0.884213895   1.007454980
  C    0.233630656   0.561721549   1.470199830
  C    0.072617531  -1.846138834   2.139533579
  C    1.924829960  -1.081895255   0.635451638
  H   -1.481513954  -1.028611703   0.015201300
  H   -0.294505096  -2.195735534  -0.561848463
  H   -0.165900848  -0.504865002  -1.044553133
  H   -0.812027054   0.735718138   1.729855283
  H    0.512507714   1.266619016   0.687188920
  H    0.836579456   0.783083173   2.351831891
  H   -0.973533633  -1.724036850   2.424262363
  H    0.683607527  -1.667246902   3.025331319
  H    0.217966293  -2.883845835   1.836242865
  H    2.216822111  -0.406789409  -0.169549014
  H    2.110140504  -2.103707719   0.301509010
  H    2.573282861  -0.886137401   1.490522484
