17
charge=0 charge_a=0 charge_b=0 selection_a=1-2 selection_b=3-17 scaling=1.10 benchmark_Eint=-1.812 benchmark_unit=kcal/mol group=Halogens
 Cl    0.608276002   0.990723756  -1.510669565
 Cl   -0.401979034  -0.698365839  -1.888663869
  C   -0.518774567  -0.741536927   3.814477579
  C    0.173993400   0.373430213   2.977277897
  C    1.091628765  -0.524475555   2.127111179
  C    0.416973039  -1.637979191   1.863025502
  C   -0.963486241  -1.503794843   2.531856200
  C   -1.699503712  -0.347659380   1.829984824
  C   -1.024772114   0.765768283   2.094138510
  H   -1.355095196  -0.375264676   4.406640653
  H    0.176173190  -1.308801988   4.430517997
  H    0.659245403   1.183012536   3.512169632
  H    2.070092562  -0.240810965   1.775450385
  H    0.720268578  -2.468721938   1.247116022
  H   -1.525925363  -2.423112793   2.656466199
  H   -2.562506731  -0.467323739   1.195659191
  H   -1.212532318   1.760434333   1.724152654
