23
charge=0 charge_a=0 charge_b=0 selection_a=1-5 selection_b=6-23 scaling=0.95 benchmark_Eint=-2.519 benchmark_unit=kcal/mol group=Halogens
  C   -0.087325691   0.127539994  -1.636274613
 Cl    0.599070979  -1.423767168  -1.113154289
 Cl   -1.700850874   0.383129484  -0.941593903
 Cl    1.000667249   1.475366178  -1.247680594
  H   -0.194848705   0.092636136  -2.709980501
  C    1.767335396   0.054095560   2.349202320
  C    1.273196642   1.428843310   2.804312050
  C   -0.209535900   1.626437422   2.482387566
  C   -1.065550804   0.500813045   3.066601876
  C   -0.570881091  -0.873587093   2.611104060
  C    0.911582920  -1.071464411   2.933984464
  H    2.813354306  -0.082632037   2.629540066
  H    1.727458561   0.003204099   1.258649785
  H    1.867883192   2.216084247   2.337373717
  H    1.422027849   1.524473420   3.884430850
  H   -0.339705338   1.647750253   1.397983137
  H   -0.551230227   2.593321675   2.856313216
  H   -2.110894029   0.637442188   2.783717950
  H   -1.028812271   0.551669900   4.159314444
  H   -0.716561308  -0.966211131   1.532372380
  H   -1.166665304  -1.661791917   3.074996309
  H    1.252920631  -2.037870673   2.558524619
  H    1.042636792  -1.094874183   4.020375484
