25
charge=0 charge_a=0 charge_b=0 selection_a=1-5 selection_b=6-25 scaling=1.05 benchmark_Eint=-3.338 benchmark_unit=kcal/mol group=Halogens
  C   -1.003997446   0.874763806  -1.091554128
 Cl   -0.755615893   2.630143221  -1.228461991
 Cl    0.363186606   0.148864706  -0.216278468
 Cl   -1.114124937   0.162065180  -2.717255396
 Cl   -2.512069399   0.557563654  -0.202626549
  C   -1.162014817   5.143419481   1.913893991
  C   -1.414323965   3.749423215   2.479773654
  C   -0.127396416   2.984364646   2.776485610
  C   -0.365835338   1.581450192   3.325589031
  C    0.921239031   0.814082410   3.613836031
  C    0.670150957  -0.612640093   4.092797685
  H   -2.094603719   5.667008246   1.703928833
  H   -0.593840698   5.090182135   0.983992563
  H   -0.587726318   5.753267215   2.612975021
  H   -2.018598325   3.173405340   1.775594143
  H   -2.006460573   3.827002203   3.395471216
  H    0.476984988   3.555886566   3.487559515
  H    0.467146740   2.915117608   1.861328291
  H   -0.968992318   1.013922864   2.612515665
  H   -0.960986209   1.644577794   4.241685453
  H    1.505366240   1.356982676   4.361512402
  H    1.534782761   0.793699080   2.709513117
  H    0.077578681  -0.620328624   5.008882853
  H    1.602754943  -1.138847738   4.296367150
  H    0.121623605  -1.184375504   3.342654324
