23
charge=0 charge_a=0 charge_b=0 selection_a=1-5 selection_b=6-23 scaling=1.25 benchmark_Eint=-1.657 benchmark_unit=kcal/mol group=Halogens
  C   -0.087325691   0.127539994  -1.636274613
 Cl    0.599070979  -1.423767168  -1.113154289
 Cl   -1.700850874   0.383129484  -0.941593903
 Cl    1.000667249   1.475366178  -1.247680594
  H   -0.194848705   0.092636136  -2.709980501
  C    1.860810682   0.086283245   3.274721041
  C    1.366671928   1.461030995   3.729830771
  C   -0.116060614   1.658625107   3.407906287
  C   -0.972075518   0.533000730   3.992120597
  C   -0.477405805  -0.841399408   3.536622781
  C    1.005058206  -1.039276726   3.859503185
  H    2.906829592  -0.050444352   3.555058787
  H    1.820933847   0.035391784   2.184168506
  H    1.961358478   2.248271932   3.262892438
  H    1.515503135   1.556661105   4.809949571
  H   -0.246230052   1.679937938   2.323501858
  H   -0.457754941   2.625509360   3.781831937
  H   -2.017418743   0.669629873   3.709236671
  H   -0.935336985   0.583857585   5.084833165
  H   -0.623086022  -0.934023446   2.457891101
  H   -1.073190018  -1.629604232   4.000515030
  H    1.346395917  -2.005682988   3.484043340
  H    1.136112078  -1.062686498   4.945894205
