23
charge=0 charge_a=0 charge_b=0 selection_a=1-5 selection_b=6-23 scaling=0.95 benchmark_Eint=-4.304 benchmark_unit=kcal/mol group=Halogens
  C    0.713633681  -0.023864749  -2.159336813
 Cl    2.415510754   0.386552179  -1.758010343
  H    0.462450622  -0.949490952  -1.656027322
  H    0.639811328  -0.133747689  -3.235090732
  H    0.080612899   0.781111925  -1.806506879
  C   -1.804123852   2.127258184   0.313705125
  C   -0.488893752   2.447939281   0.712972614
  C    0.397987351   1.454580892   1.032029242
  C    0.017455625   0.094284229   0.962038368
  C    0.921890333  -0.954985611   1.246912629
  C    0.535392549  -2.263780930   1.133697559
  C   -0.779663061  -2.586155086   0.735215057
  C   -1.680447642  -1.592834865   0.455568773
  C   -1.310577295  -0.230762316   0.555183393
  C   -2.204713399   0.819450764   0.239679483
  H   -2.494738455   2.920548781   0.065042620
  H   -0.183391752   3.483332421   0.761860904
  H    1.410267366   1.695939456   1.324271982
  H    1.932265752  -0.704555008   1.538161183
  H    1.238369768  -3.056645351   1.345735843
  H   -1.072562192  -3.623035176   0.650460355
  H   -2.688144444  -1.837593332   0.147634851
  H   -3.211580698   0.571256593  -0.068216010
