22
charge=0 charge_a=0 charge_b=0 selection_a=1-17 selection_b=18-22 scaling=1.10 benchmark_Eint=-2.192 benchmark_unit=kcal/mol group=Halogens
  C   -1.864665868   0.768379593  -2.241790800
  C   -0.711344430  -0.221444607  -2.375582385
  C    0.650292778   0.460924566  -2.466999197
  C    1.818234084  -0.520005493  -2.509202859
  C    3.175667027   0.172009146  -2.592528234
  H   -2.826901899   0.261023390  -2.165969268
  H   -1.910345269   1.436427325  -3.102963441
  H   -1.740763662   1.389577118  -1.353590706
  H   -0.864191927  -0.848610355  -3.257796184
  H   -0.705822965  -0.899548906  -1.518817112
  H    0.772864099   1.124495303  -1.607069047
  H    0.677321463   1.099942515  -3.355147400
  H    1.695932338  -1.192661046  -3.362568286
  H    1.782949334  -1.149271972  -1.616364608
  H    3.248946460   0.786646984  -3.491133650
  H    3.992939622  -0.548818570  -2.615611991
  H    3.333200531   0.825915273  -1.733525815
  C   -1.851784292  -0.237532894   1.589645043
 Br    0.076907061   0.091692789   1.634716910
  H   -2.346914508   0.722395782   1.521639918
  H   -2.116987369  -0.753573856   2.503337011
  H   -2.059759859  -0.844884502   0.718442699
