12
charge=0 charge_a=0 charge_b=0 selection_a=1-7 selection_b=8-12 scaling=1.25 benchmark_Eint=-1.254 benchmark_unit=kcal/mol group=Halogens
  C    0.687531602  -0.161705291  -1.623412208
  C   -0.504882473  -0.049095634  -1.612479015
  C   -1.950949275   0.083039362  -1.585334708
  H    1.742602983  -0.262305323  -1.623634099
  H   -2.242494652   1.094094363  -1.301096056
  H   -2.385060529  -0.604809475  -0.859876124
  H   -2.382569362  -0.132897377  -2.562747226
  C    0.154263880  -0.626622826   3.169509790
 Br   -0.747018383   1.038450414   2.735317453
 Br   -0.725417621  -2.164772227   2.373715396
 Br    2.047094457  -0.565243293   2.741495182
  H    0.082426749  -0.747593575   4.237772025
