12
charge=0 charge_a=0 charge_b=0 selection_a=1-7 selection_b=8-12 scaling=0.95 benchmark_Eint=-2.156 benchmark_unit=kcal/mol group=Halogens
  C    0.687531602  -0.161705291  -1.623412208
  C   -0.504882473  -0.049095634  -1.612479015
  C   -1.950949275   0.083039362  -1.585334708
  H    1.742602983  -0.262305323  -1.623634099
  H   -2.242494652   1.094094363  -1.301096056
  H   -2.385060529  -0.604809475  -0.859876124
  H   -2.382569362  -0.132897377  -2.562747226
  C   -0.034231027  -0.509002439   2.228210187
 Br   -0.935513290   1.156070801   1.794017850
 Br   -0.913912528  -2.047151840   1.432415793
 Br    1.858599550  -0.447622906   1.800195579
  H   -0.106068158  -0.629973188   3.296472422
