12
charge=0 charge_a=0 charge_b=0 selection_a=1-7 selection_b=8-12 scaling=2.00 benchmark_Eint=-0.062 benchmark_unit=kcal/mol group=Halogens
  C    0.687531602  -0.161705291  -1.623412208
  C   -0.504882473  -0.049095634  -1.612479015
  C   -1.950949275   0.083039362  -1.585334708
  H    1.742602983  -0.262305323  -1.623634099
  H   -2.242494652   1.094094363  -1.301096056
  H   -2.385060529  -0.604809475  -0.859876124
  H   -2.382569362  -0.132897377  -2.562747226
  C    0.625501148  -0.920673794   5.522758796
 Br   -0.275781115   0.744399446   5.088566459
 Br   -0.254180353  -2.458823195   4.726964402
 Br    2.518331725  -0.859294261   5.094744188
  H    0.553664017  -1.041644543   6.591021031
