12
charge=0 charge_a=0 charge_b=0 selection_a=1-7 selection_b=8-12 scaling=1.10 benchmark_Eint=-2.005 benchmark_unit=kcal/mol group=Halogens
  C    0.687531602  -0.161705291  -1.623412208
  C   -0.504882473  -0.049095634  -1.612479015
  C   -1.950949275   0.083039362  -1.585334708
  H    1.742602983  -0.262305323  -1.623634099
  H   -2.242494652   1.094094363  -1.301096056
  H   -2.385060529  -0.604809475  -0.859876124
  H   -2.382569362  -0.132897377  -2.562747226
  C    0.060016427  -0.567812633   2.698859988
 Br   -0.841265836   1.097260607   2.264667651
 Br   -0.819665074  -2.105962034   1.903065594
 Br    1.952847004  -0.506433100   2.270845380
  H   -0.011820704  -0.688783382   3.767122223
