12
charge=0 charge_a=0 charge_b=0 selection_a=1-7 selection_b=8-12 scaling=0.80 benchmark_Eint=2.486 benchmark_unit=kcal/mol group=Halogens
  C    0.687531602  -0.161705291  -1.623412208
  C   -0.504882473  -0.049095634  -1.612479015
  C   -1.950949275   0.083039362  -1.585334708
  H    1.742602983  -0.262305323  -1.623634099
  H   -2.242494652   1.094094363  -1.301096056
  H   -2.385060529  -0.604809475  -0.859876124
  H   -2.382569362  -0.132897377  -2.562747226
  C   -0.128478480  -0.450192246   1.757560386
 Br   -1.029760743   1.214880994   1.323368049
 Br   -1.008159981  -1.988341647   0.961765992
 Br    1.764352097  -0.388812713   1.329545778
  H   -0.200315611  -0.571162995   2.825822621
