12
charge=0 charge_a=0 charge_b=0 selection_a=1-7 selection_b=8-12 scaling=0.90 benchmark_Eint=-1.557 benchmark_unit=kcal/mol group=Halogens
  C    0.687531602  -0.161705291  -1.623412208
  C   -0.504882473  -0.049095634  -1.612479015
  C   -1.950949275   0.083039362  -1.585334708
  H    1.742602983  -0.262305323  -1.623634099
  H   -2.242494652   1.094094363  -1.301096056
  H   -2.385060529  -0.604809475  -0.859876124
  H   -2.382569362  -0.132897377  -2.562747226
  C   -0.065646845  -0.489399041   2.071326920
 Br   -0.966929108   1.175674199   1.637134583
 Br   -0.945328346  -2.027548442   1.275532526
 Br    1.827183732  -0.428019508   1.643312312
  H   -0.137483976  -0.610369790   3.139589155
