22
charge=0 charge_a=0 charge_b=0 selection_a=1-17 selection_b=18-22 scaling=0.80 benchmark_Eint=-0.311 benchmark_unit=kcal/mol group=Halogens
  C   -1.864665868   0.768379593  -2.241790800
  C   -0.711344430  -0.221444607  -2.375582385
  C    0.650292778   0.460924566  -2.466999197
  C    1.818234084  -0.520005493  -2.509202859
  C    3.175667027   0.172009146  -2.592528234
  H   -2.826901899   0.261023390  -2.165969268
  H   -1.910345269   1.436427325  -3.102963441
  H   -1.740763662   1.389577118  -1.353590706
  H   -0.864191927  -0.848610355  -3.257796184
  H   -0.705822965  -0.899548906  -1.518817112
  H    0.772864099   1.124495303  -1.607069047
  H    0.677321463   1.099942515  -3.355147400
  H    1.695932338  -1.192661046  -3.362568286
  H    1.782949334  -1.149271972  -1.616364608
  H    3.248946460   0.786646984  -3.491133650
  H    3.992939622  -0.548818570  -2.615611991
  H    3.333200531   0.825915273  -1.733525815
  C   -1.704319829  -0.219577478   0.887740548
 Br    0.224371524   0.109648205   0.932812415
  H   -2.199450045   0.740351198   0.819735423
  H   -1.969522906  -0.735618440   1.801432516
  H   -1.912295396  -0.826929086   0.016538204
