20
charge=0 charge_a=0 charge_b=0 selection_a=1-15 selection_b=16-20 scaling=1.25 benchmark_Eint=-2.492 benchmark_unit=kcal/mol group=Halogens
  C   -1.299526689   3.148535450  -2.388882044
  C    0.093713110   2.597236499  -2.266252465
  C   -1.612138887   4.407489867  -1.875597370
  C   -2.904103002   4.909426719  -1.951381890
  C   -3.911086974   4.159162820  -2.548441238
  C   -3.612077689   2.907101849  -3.065903864
  C   -2.317426489   2.408312843  -2.985089298
  H    0.286102253   2.258761542  -1.246507673
  H    0.841855855   3.352220218  -2.506384368
  H    0.243309079   1.746775859  -2.928512928
  H   -0.834420607   4.998661407  -1.409835041
  H   -3.125061364   5.887747487  -1.547619669
  H   -4.917738628   4.547551561  -2.607302192
  H   -4.387246633   2.312122609  -3.527024138
  H   -2.096703577   1.427372551  -3.382998833
  C   -3.491274373  -0.333975789   0.828206967
 Br   -1.763759927  -0.933204392   0.130999863
 Br   -3.868318002  -1.270173044   2.502949475
 Br   -4.889748054  -0.750838493  -0.472538214
 Br   -3.437257771   1.584917490   1.140605724
