25
charge=0 charge_a=0 charge_b=0 selection_a=1-5 selection_b=6-25 scaling=1.25 benchmark_Eint=-2.942 benchmark_unit=kcal/mol group=Halogens
  C    0.148030304   1.419697876  -0.699642820
  I    0.070461159   3.405316441  -1.500617235
  I    2.098509231   0.537918412  -0.607360057
  H   -0.459522406   0.792151083  -1.333838149
  H   -0.230600371   1.465441096   0.310034507
  C   -1.109810031   1.106986545   3.962229078
  C    0.218487939   1.796323506   3.664832556
  C    0.058515576   3.262284577   3.268288909
  C    1.367698065   3.931266908   2.861765591
  C    1.214396411   5.411059765   2.522835272
  C    2.508848226   6.040320048   2.017355646
  H   -0.966656344   0.065297334   4.248538136
  H   -1.766461842   1.123866896   3.090103084
  H   -1.638245155   1.606631353   4.775334782
  H    0.743220084   1.258441563   2.871093860
  H    0.869176742   1.732845206   4.540436985
  H   -0.391205015   3.811909435   4.100514110
  H   -0.655234118   3.344126813   2.442041716
  H    1.788168376   3.407599235   1.998913454
  H    2.100119936   3.817490766   3.666639544
  H    0.861015773   5.948671056   3.406698749
  H    0.435889687   5.523291780   1.764976350
  H    3.304794714   5.953186583   2.758651295
  H    2.379381523   7.098833640   1.791895509
  H    2.850173608   5.544794437   1.107451607
