11
charge=0 charge_a=0 charge_b=0 selection_a=1-5 selection_b=6-11 scaling=0.95 benchmark_Eint=-2.055 benchmark_unit=kcal/mol group=Halogens
  C   -1.568562952   0.530348096  -1.805548290
  I    0.255953806  -0.113605259  -2.748864579
  H   -1.960819849  -0.315306697  -1.257228077
  H   -2.243204154   0.850095470  -2.588663639
  H   -1.313434697   1.342093694  -1.137904399
  C   -0.786616226  -1.860995592   1.115654274
  C   -0.301652705  -0.759950836   1.123160781
  C    0.245832583   0.487545299   1.121922310
  C    0.728092495   1.589676377   1.110395506
  H   -1.205866801  -2.835441776   1.108429620
  H    1.162257921   2.557492389   1.096918950
