20
charge=0 charge_a=0 charge_b=0 selection_a=1-5 selection_b=6-20 scaling=1.10 benchmark_Eint=-5.872 benchmark_unit=kcal/mol group=Halogens
  C    0.624689675   0.099905150  -0.113571213
  I    1.853422882  -1.088560235  -1.405234410
  I   -1.486380852  -0.180508628  -0.347693248
  H    0.836524508   1.135078986  -0.333776868
  H    0.873730696  -0.167407879   0.901879464
  C    0.699641376  -2.611474113   2.506396404
  C    0.125763358  -3.758631383   1.723487729
  C   -0.128738906  -1.740221842   3.213111492
  C    0.394161410  -0.642925856   3.885916967
  C    1.762297463  -0.399000125   3.865915233
  C    2.600979042  -1.266348640   3.175039299
  C    2.072162060  -2.361464500   2.504417956
  H   -0.826180228  -4.085616843   2.137678367
  H    0.805735681  -4.608930102   1.708515686
  H   -0.051092568  -3.463190351   0.687409955
  H   -1.195298386  -1.916511680   3.224584237
  H   -0.267335720   0.022738438   4.422199447
  H    2.171390023   0.454456299   4.387480468
  H    3.666891543  -1.088279012   3.154982504
  H    2.730286312  -3.024780857   1.960533122
