16
charge=0 charge_a=0 charge_b=0 selection_a=1-5 selection_b=6-16 scaling=1.50 benchmark_Eint=-0.777 benchmark_unit=kcal/mol group=Halogens
  C   -0.046647048   1.110215726  -3.420136049
  I    1.935223886   1.834727008  -3.825685991
  I   -0.442144201   0.610108421  -1.369576651
  H   -0.182720252   0.216981456  -4.011585004
  H   -0.732973451   1.891575747  -3.710717218
  C    0.366451771   0.701655292   3.949145926
  C    1.263056010  -0.499427639   3.884949293
  C    0.531459557  -1.582351856   3.575903908
  C   -0.869404174  -1.187805835   3.416158496
  C   -0.985504779   0.136915087   3.626041305
  H    0.668760550   1.475066140   3.236340216
  H    0.383664202   1.175046687   4.936272041
  H    2.326818831  -0.466126437   4.055072156
  H    0.900687674  -2.588363096   3.451915644
  H   -1.672617542  -1.865455389   3.170835821
  H   -1.891272821   0.719740750   3.588526248
