20
charge=0 charge_a=0 charge_b=0 selection_a=1-5 selection_b=6-20 scaling=2.00 benchmark_Eint=-0.245 benchmark_unit=kcal/mol group=Halogens
  C    0.116368879   1.112155136  -2.278662844
  I    2.100916695   0.466286239  -1.755065831
  I   -1.108429035  -0.473120407  -3.063684873
  I   -0.848919071   2.214910328  -0.705151720
  H    0.242864961   1.810754643  -3.089990543
  C    0.315089938  -5.531344483   1.944001849
  C    0.963347229  -4.898610400   3.178549117
  C   -1.178290107  -5.519202592   2.284128819
  C   -0.007549895  -3.773186807   3.585225030
  C   -1.396234150  -4.184639710   3.026599739
  H    0.500776973  -4.906918679   1.068445170
  H    0.695965280  -6.527825246   1.721894878
  H    1.033543501  -5.642404453   3.974948730
  H    1.971491162  -4.531299348   2.989216990
  H   -1.814832953  -5.615188297   1.405179523
  H   -1.408319754  -6.358747039   2.943073001
  H   -0.024978703  -3.623294804   4.663526397
  H    0.307830897  -2.828998163   3.143381763
  H   -1.763572946  -3.424698920   2.338410944
  H   -2.142626416  -4.280448766   3.813497422
