22
charge=0 charge_a=0 charge_b=0 selection_a=1-5 selection_b=6-22 scaling=0.85 benchmark_Eint=-0.189 benchmark_unit=kcal/mol group=Halogens
  C   -0.338924334   1.277512679  -2.218377952
  I    0.770915623  -0.551768745  -1.978584253
  I   -2.182374621   1.294155655  -1.111461669
  I    0.857766450   3.033451670  -1.886217551
  H   -0.622006246   1.309325790  -3.258137857
  C   -0.736892776  -0.660304497   1.709543586
  C    0.490116634   0.118652862   2.197749051
  C    0.590881924   1.446721667   1.439582677
  C    0.355166338   0.395594111   3.699371835
  C    1.754762684  -0.709368355   1.939958808
  H   -1.652568913  -0.091670392   1.876257360
  H   -0.829994524  -1.610533968   2.237483527
  H   -0.668024995  -0.872304318   0.642969221
  H   -0.306338684   2.050393862   1.578688923
  H    0.714677301   1.276564342   0.371058449
  H    1.446669642   2.029788215   1.782677655
  H   -0.536845928   0.987763767   3.908654522
  H    1.218576412   0.946609793   4.074905347
  H    0.279617702  -0.534859717   4.263965143
  H    1.872631438  -0.916669728   0.875959644
  H    1.712242888  -1.663621158   2.466966417
  H    2.645602799  -0.178467265   2.278569902
