25
charge=0 charge_a=0 charge_b=0 selection_a=1-5 selection_b=6-25 scaling=2.00 benchmark_Eint=-0.510 benchmark_unit=kcal/mol group=Halogens
  C    0.148030304   1.419697876  -0.699642820
  I    0.070461159   3.405316441  -1.500617235
  I    2.098509231   0.537918412  -0.607360057
  H   -0.459522406   0.792151083  -1.333838149
  H   -0.230600371   1.465441096   0.310034507
  C   -1.236126541   1.753809697   5.562102832
  C    0.092171429   2.443146658   5.264706310
  C   -0.067800934   3.909107729   4.868162663
  C    1.241381555   4.578090060   4.461639345
  C    1.088079901   6.057882917   4.122709026
  C    2.382531716   6.687143200   3.617229400
  H   -1.092972854   0.712120486   5.848411890
  H   -1.892778352   1.770690048   4.689976838
  H   -1.764561665   2.253454505   6.375208536
  H    0.616903574   1.905264715   4.470967614
  H    0.742860232   2.379668358   6.140310739
  H   -0.517521525   4.458732587   5.700387864
  H   -0.781550628   3.990949965   4.041915470
  H    1.661851866   4.054422387   3.598787208
  H    1.973803426   4.464313918   5.266513298
  H    0.734699263   6.595494208   5.006572503
  H    0.309573177   6.170114932   3.364850104
  H    3.178478204   6.600009735   4.358525049
  H    2.253065013   7.745656792   3.391769263
  H    2.723857098   6.191617589   2.707325361
