25
charge=0 charge_a=0 charge_b=0 selection_a=1-5 selection_b=6-25 scaling=1.05 benchmark_Eint=-3.997 benchmark_unit=kcal/mol group=Halogens
  C    0.148030304   1.419697876  -0.699642820
  I    0.070461159   3.405316441  -1.500617235
  I    2.098509231   0.537918412  -0.607360057
  H   -0.459522406   0.792151083  -1.333838149
  H   -0.230600371   1.465441096   0.310034507
  C   -1.076125628   0.934500371   3.535596077
  C    0.252172342   1.623837332   3.238199555
  C    0.092199979   3.089798403   2.841655908
  C    1.401382468   3.758780734   2.435132590
  C    1.248080814   5.238573591   2.096202271
  C    2.542532629   5.867833874   1.590722645
  H   -0.932971941  -0.107188840   3.821905135
  H   -1.732777439   0.951380722   2.663470083
  H   -1.604560752   1.434145179   4.348701781
  H    0.776904487   1.085955389   2.444460859
  H    0.902861145   1.560359032   4.113803984
  H   -0.357520612   3.639423261   3.673881109
  H   -0.621549715   3.171640639   2.015408715
  H    1.821852779   3.235113061   1.572280453
  H    2.133804339   3.645004592   3.240006543
  H    0.894700176   5.776184882   2.980065748
  H    0.469574090   5.350805606   1.338343349
  H    3.338479117   5.780700409   2.332018294
  H    2.413065926   6.926347466   1.365262508
  H    2.883858011   5.372308263   0.680818606
