11
charge=0 charge_a=0 charge_b=0 selection_a=1-5 selection_b=6-11 scaling=1.25 benchmark_Eint=-1.309 benchmark_unit=kcal/mol group=Halogens
  C   -1.568562952   0.530348096  -1.805548290
  I    0.255953806  -0.113605259  -2.748864579
  H   -1.960819849  -0.315306697  -1.257228077
  H   -2.243204154   0.850095470  -2.588663639
  H   -1.313434697   1.342093694  -1.137904399
  C   -0.806950375  -1.883105054   2.013283996
  C   -0.321986854  -0.782060298   2.020790503
  C    0.225498434   0.465435837   2.019552032
  C    0.707758346   1.567566915   2.008025228
  H   -1.226200950  -2.857551238   2.006059342
  H    1.141923772   2.535382927   1.994548672
