22
charge=0 charge_a=0 charge_b=0 selection_a=1-5 selection_b=6-22 scaling=0.90 benchmark_Eint=-1.775 benchmark_unit=kcal/mol group=Halogens
  C   -0.338924334   1.277512679  -2.218377952
  I    0.770915623  -0.551768745  -1.978584253
  I   -2.182374621   1.294155655  -1.111461669
  I    0.857766450   3.033451670  -1.886217551
  H   -0.622006246   1.309325790  -3.258137857
  C   -0.709806179  -0.705668297   1.863685860
  C    0.517203231   0.073289062   2.351891325
  C    0.617968521   1.401357867   1.593724951
  C    0.382252935   0.350230311   3.853514109
  C    1.781849281  -0.754732155   2.094101082
  H   -1.625482316  -0.137034192   2.030399634
  H   -0.802907927  -1.655897768   2.391625801
  H   -0.640938398  -0.917668118   0.797111495
  H   -0.279252087   2.005030062   1.732831197
  H    0.741763898   1.231200542   0.525200723
  H    1.473756239   1.984424415   1.936819929
  H   -0.509759331   0.942399967   4.062796796
  H    1.245663009   0.901245993   4.229047621
  H    0.306704299  -0.580223517   4.418107417
  H    1.899718035  -0.962033528   1.030101918
  H    1.739329485  -1.708984958   2.621108691
  H    2.672689396  -0.223831065   2.432712176
