11
charge=0 charge_a=0 charge_b=0 selection_a=1-5 selection_b=6-11 scaling=1.50 benchmark_Eint=-0.616 benchmark_unit=kcal/mol group=Halogens
  C   -1.568562952   0.530348096  -1.805548290
  I    0.255953806  -0.113605259  -2.748864579
  H   -1.960819849  -0.315306697  -1.257228077
  H   -2.243204154   0.850095470  -2.588663639
  H   -1.313434697   1.342093694  -1.137904399
  C   -0.823895498  -1.901529605   2.761308765
  C   -0.338931977  -0.800484849   2.768815272
  C    0.208553311   0.447011286   2.767576801
  C    0.690813223   1.549142364   2.756049997
  H   -1.243146073  -2.875975789   2.754084111
  H    1.124978649   2.516958376   2.742573441
