16
charge=0 charge_a=0 charge_b=0 selection_a=1-5 selection_b=6-16 scaling=0.90 benchmark_Eint=-2.591 benchmark_unit=kcal/mol group=Halogens
  C   -0.046647048   1.110215726  -3.420136049
  I    1.935223886   1.834727008  -3.825685991
  I   -0.442144201   0.610108421  -1.369576651
  H   -0.182720252   0.216981456  -4.011585004
  H   -0.732973451   1.891575747  -3.710717218
  C    0.562457478   1.220370580   1.993646381
  C    1.459061717   0.019287649   1.929449748
  C    0.727465264  -1.063636568   1.620404363
  C   -0.673398467  -0.669090547   1.460658951
  C   -0.789499072   0.655630375   1.670541760
  H    0.864766257   1.993781428   1.280840671
  H    0.579669909   1.693761975   2.980772496
  H    2.522824538   0.052588851   2.099572611
  H    1.096693381  -2.069647808   1.496416099
  H   -1.476611835  -1.346740101   1.215336276
  H   -1.695267114   1.238456038   1.633026703
