20
charge=0 charge_a=0 charge_b=0 selection_a=1-5 selection_b=6-20 scaling=1.25 benchmark_Eint=-4.310 benchmark_unit=kcal/mol group=Halogens
  C    0.624689675   0.099905150  -0.113571213
  I    1.853422882  -1.088560235  -1.405234410
  I   -1.486380852  -0.180508628  -0.347693248
  H    0.836524508   1.135078986  -0.333776868
  H    0.873730696  -0.167407879   0.901879464
  C    0.784739752  -2.738318753   2.886157615
  C    0.210861734  -3.885476023   2.103248940
  C   -0.043640530  -1.867066482   3.592872703
  C    0.479259786  -0.769770496   4.265678178
  C    1.847395839  -0.525844765   4.245676444
  C    2.686077418  -1.393193280   3.554800510
  C    2.157260436  -2.488309140   2.884179167
  H   -0.741081852  -4.212461483   2.517439578
  H    0.890834057  -4.735774742   2.088276897
  H    0.034005808  -3.590034991   1.067171166
  H   -1.110200010  -2.043356320   3.604345448
  H   -0.182237344  -0.104106202   4.801960658
  H    2.256488399   0.327611659   4.767241679
  H    3.751989919  -1.215123652   3.534743715
  H    2.815384688  -3.151625497   2.340294333
