20
charge=0 charge_a=0 charge_b=0 selection_a=1-5 selection_b=6-20 scaling=0.80 benchmark_Eint=3.838 benchmark_unit=kcal/mol group=Halogens
  C    0.116368879   1.112155136  -2.278662844
  I    2.100916695   0.466286239  -1.755065831
  I   -1.108429035  -0.473120407  -3.063684873
  I   -0.848919071   2.214910328  -0.705151720
  H    0.242864961   1.810754643  -3.089990543
  C    0.484979891  -2.517045018  -0.596841513
  C    1.133237182  -1.884310935   0.637705755
  C   -1.008400154  -2.504903127  -0.256714543
  C    0.162340058  -0.758887342   1.044381668
  C   -1.226344197  -1.170340245   0.485756377
  H    0.670666926  -1.892619214  -1.472398192
  H    0.865855233  -3.513525781  -0.818948484
  H    1.203433454  -2.628104988   1.434105368
  H    2.141381115  -1.516999883   0.448373628
  H   -1.644943000  -2.600888832  -1.135663839
  H   -1.238429801  -3.344447574   0.402229639
  H    0.144911250  -0.608995339   2.122683035
  H    0.477720850   0.185301302   0.602538401
  H   -1.593682993  -0.410399455  -0.202432418
  H   -1.972736463  -1.266149301   1.272654060
