16
charge=0 charge_a=0 charge_b=0 selection_a=1-5 selection_b=6-16 scaling=1.10 benchmark_Eint=-3.233 benchmark_unit=kcal/mol group=Halogens
  C   -0.046647048   1.110215726  -3.420136049
  I    1.935223886   1.834727008  -3.825685991
  I   -0.442144201   0.610108421  -1.369576651
  H   -0.182720252   0.216981456  -4.011585004
  H   -0.732973451   1.891575747  -3.710717218
  C    0.497122242   1.047465484   2.645479563
  C    1.393726481  -0.153617447   2.581282930
  C    0.662130028  -1.236541664   2.272237545
  C   -0.738733703  -0.841995643   2.112492133
  C   -0.854834308   0.482725279   2.322374942
  H    0.799431021   1.820876332   1.932673853
  H    0.514334673   1.520856879   3.632605678
  H    2.457489302  -0.120316245   2.751405793
  H    1.031358145  -2.242552904   2.148249281
  H   -1.541947071  -1.519645197   1.867169458
  H   -1.760602350   1.065550942   2.284859885
