20
charge=0 charge_a=0 charge_b=0 selection_a=1-5 selection_b=6-20 scaling=1.05 benchmark_Eint=-3.854 benchmark_unit=kcal/mol group=Halogens
  C    0.116368879   1.112155136  -2.278662844
  I    2.100916695   0.466286239  -1.755065831
  I   -1.108429035  -0.473120407  -3.063684873
  I   -0.848919071   2.214910328  -0.705151720
  H    0.242864961   1.810754643  -3.089990543
  C    0.449586151  -3.145024073  -0.067499146
  C    1.097843442  -2.512289990   1.167048122
  C   -1.043793894  -3.132882182   0.272627824
  C    0.126946318  -1.386866397   1.573724035
  C   -1.261737937  -1.798319300   1.015098744
  H    0.635273186  -2.520598269  -0.943055825
  H    0.830461493  -4.141504836  -0.289606117
  H    1.168039714  -3.256084043   1.963447735
  H    2.105987375  -2.144978938   0.977715995
  H   -1.680336740  -3.228867887  -0.606321472
  H   -1.273823541  -3.972426629   0.931572006
  H    0.109517510  -1.236974394   2.652025402
  H    0.442327110  -0.442677753   1.131880768
  H   -1.629076733  -1.038378510   0.326909949
  H   -2.008130203  -1.894128356   1.801996427
