25
charge=0 charge_a=0 charge_b=0 selection_a=1-5 selection_b=6-25 scaling=0.80 benchmark_Eint=-0.967 benchmark_unit=kcal/mol group=Halogens
  C    0.148030304   1.419697876  -0.699642820
  I    0.070461159   3.405316441  -1.500617235
  I    2.098509231   0.537918412  -0.607360057
  H   -0.459522406   0.792151083  -1.333838149
  H   -0.230600371   1.465441096   0.310034507
  C   -1.034020124   0.718892654   3.002304826
  C    0.294277846   1.408229615   2.704908304
  C    0.134305483   2.874190686   2.308364657
  C    1.443487972   3.543173017   1.901841339
  C    1.290186318   5.022965874   1.562911020
  C    2.584638133   5.652226157   1.057431394
  H   -0.890866437  -0.322796557   3.288613884
  H   -1.690671935   0.735773005   2.130178832
  H   -1.562455248   1.218537462   3.815410530
  H    0.819009991   0.870347672   1.911169608
  H    0.944966649   1.344751315   3.580512733
  H   -0.315415108   3.423815544   3.140589858
  H   -0.579444211   2.956032922   1.482117464
  H    1.863958283   3.019505344   1.038989202
  H    2.175909843   3.429396875   2.706715292
  H    0.936805680   5.560577165   2.446774497
  H    0.511679594   5.135197889   0.805052098
  H    3.380584621   5.565092692   1.798727043
  H    2.455171430   6.710739749   0.831971257
  H    2.925963515   5.156700546   0.147527355
