11
charge=0 charge_a=0 charge_b=0 selection_a=1-5 selection_b=6-11 scaling=1.10 benchmark_Eint=-1.906 benchmark_unit=kcal/mol group=Halogens
  C   -1.568562952   0.530348096  -1.805548290
  I    0.255953806  -0.113605259  -2.748864579
  H   -1.960819849  -0.315306697  -1.257228077
  H   -2.243204154   0.850095470  -2.588663639
  H   -1.313434697   1.342093694  -1.137904399
  C   -0.796783300  -1.872050323   1.564469135
  C   -0.311819779  -0.771005567   1.571975642
  C    0.235665509   0.476490568   1.570737171
  C    0.717925421   1.578621646   1.559210367
  H   -1.216033875  -2.846496507   1.557244481
  H    1.152090847   2.546437658   1.545733811
