25
charge=0 charge_a=0 charge_b=0 selection_a=1-5 selection_b=6-25 scaling=0.90 benchmark_Eint=-3.479 benchmark_unit=kcal/mol group=Halogens
  C    0.148030304   1.419697876  -0.699642820
  I    0.070461159   3.405316441  -1.500617235
  I    2.098509231   0.537918412  -0.607360057
  H   -0.459522406   0.792151083  -1.333838149
  H   -0.230600371   1.465441096   0.310034507
  C   -1.050862326   0.805135741   3.215621326
  C    0.277435644   1.494472702   2.918224804
  C    0.117463281   2.960433773   2.521681157
  C    1.426645770   3.629416104   2.115157839
  C    1.273344116   5.109208961   1.776227520
  C    2.567795931   5.738469244   1.270747894
  H   -0.907708639  -0.236553470   3.501930384
  H   -1.707514137   0.822016092   2.343495332
  H   -1.579297450   1.304780549   4.028727030
  H    0.802167789   0.956590759   2.124486108
  H    0.928124447   1.430994402   3.793829233
  H   -0.332257310   3.510058631   3.353906358
  H   -0.596286413   3.042276009   1.695433964
  H    1.847116081   3.105748431   1.252305702
  H    2.159067641   3.515639962   2.920031792
  H    0.919963478   5.646820252   2.660090997
  H    0.494837392   5.221440976   1.018368598
  H    3.363742419   5.651335779   2.012043543
  H    2.438329228   6.796982836   1.045287757
  H    2.909121313   5.242943633   0.360843855
