20
charge=0 charge_a=0 charge_b=0 selection_a=1-5 selection_b=6-20 scaling=1.50 benchmark_Eint=-2.259 benchmark_unit=kcal/mol group=Halogens
  C    0.624689675   0.099905150  -0.113571213
  I    1.853422882  -1.088560235  -1.405234410
  I   -1.486380852  -0.180508628  -0.347693248
  H    0.836524508   1.135078986  -0.333776868
  H    0.873730696  -0.167407879   0.901879464
  C    0.926570378  -2.949726485   3.519092966
  C    0.352692360  -4.096883755   2.736184291
  C    0.098190096  -2.078474214   4.225808054
  C    0.621090412  -0.981178228   4.898613529
  C    1.989226465  -0.737252497   4.878611795
  C    2.827908044  -1.604601012   4.187735861
  C    2.299091062  -2.699716872   3.517114518
  H   -0.599251226  -4.423869215   3.150374929
  H    1.032664683  -4.947182474   2.721212248
  H    0.175836434  -3.801442723   1.700106517
  H   -0.968369384  -2.254764052   4.237280799
  H   -0.040406718  -0.315513934   5.434896009
  H    2.398319025   0.116203927   5.400177030
  H    3.893820545  -1.426531384   4.167679066
  H    2.957215314  -3.363033229   2.973229684
