16
charge=0 charge_a=0 charge_b=0 selection_a=1-5 selection_b=6-16 scaling=1.25 benchmark_Eint=-1.988 benchmark_unit=kcal/mol group=Halogens
  C   -0.046647048   1.110215726  -3.420136049
  I    1.935223886   1.834727008  -3.825685991
  I   -0.442144201   0.610108421  -1.369576651
  H   -0.182720252   0.216981456  -4.011585004
  H   -0.732973451   1.891575747  -3.710717218
  C    0.448120816   0.917786662   3.134354449
  C    1.344725055  -0.283296269   3.070157816
  C    0.613128602  -1.366220486   2.761112431
  C   -0.787735129  -0.971674465   2.601367019
  C   -0.903835734   0.353046457   2.811249828
  H    0.750429595   1.691197510   2.421548739
  H    0.465333247   1.391178057   4.121480564
  H    2.408487876  -0.249995067   3.240280679
  H    0.982356719  -2.372231726   2.637124167
  H   -1.590948497  -1.649324019   2.356044344
  H   -1.809603776   0.935872120   2.773734771
