14
charge=0 charge_a=0 charge_b=0 selection_a=1-9 selection_b=10-14 scaling=1.05 benchmark_Eint=-1.718 benchmark_unit=kcal/mol group=Halogens
  N   -2.014591641  -0.149047381  -1.555089103
  C   -1.337019312   0.986403658  -1.408857831
  N   -0.016419541   1.115733742  -1.500406777
  C    0.632228183  -0.016676731  -1.758552443
  N    0.067565202  -1.209545875  -1.925478704
  C   -1.257742839  -1.212500781  -1.811178073
  H   -1.909025356   1.881395333  -1.196402183
  H    1.710981362   0.037016384  -1.837039856
  H   -1.763848958  -2.161952224  -1.937584410
  C    0.549964768  -0.057754627   2.244611424
  F   -0.468125521  -0.614654323   1.571312461
  F    1.661719897  -0.177952494   1.505867847
  F    0.286460159   1.243599565   2.410347435
  H    0.679282622  -0.547637101   3.207600448
