14
charge=0 charge_a=0 charge_b=0 selection_a=1-9 selection_b=10-14 scaling=1.25 benchmark_Eint=-0.898 benchmark_unit=kcal/mol group=Halogens
  N   -2.014591641  -0.149047381  -1.555089103
  C   -1.337019312   0.986403658  -1.408857831
  N   -0.016419541   1.115733742  -1.500406777
  C    0.632228183  -0.016676731  -1.758552443
  N    0.067565202  -1.209545875  -1.925478704
  C   -1.257742839  -1.212500781  -1.811178073
  H   -1.909025356   1.881395333  -1.196402183
  H    1.710981362   0.037016384  -1.837039856
  H   -1.763848958  -2.161952224  -1.937584410
  C    0.747015956  -0.026239290   2.852739568
  F   -0.271074333  -0.583138986   2.179440605
  F    1.858771085  -0.146437157   2.113995991
  F    0.483511347   1.275114902   3.018475579
  H    0.876333810  -0.516121764   3.815728592
