14
charge=0 charge_a=0 charge_b=0 selection_a=1-9 selection_b=10-14 scaling=0.85 benchmark_Eint=-0.598 benchmark_unit=kcal/mol group=Halogens
  N   -2.014591641  -0.149047381  -1.555089103
  C   -1.337019312   0.986403658  -1.408857831
  N   -0.016419541   1.115733742  -1.500406777
  C    0.632228183  -0.016676731  -1.758552443
  N    0.067565202  -1.209545875  -1.925478704
  C   -1.257742839  -1.212500781  -1.811178073
  H   -1.909025356   1.881395333  -1.196402183
  H    1.710981362   0.037016384  -1.837039856
  H   -1.763848958  -2.161952224  -1.937584410
  C    0.352913580  -0.089269964   1.636483280
  F   -0.665176709  -0.646169660   0.963184317
  F    1.464668709  -0.209467831   0.897739703
  F    0.089408971   1.212084228   1.802219291
  H    0.482231434  -0.579152438   2.599472304
