6
charge=0 charge_a=0 charge_b=0 selection_a=1-4 selection_b=5-6 scaling=1.50 benchmark_Eint=-0.131 benchmark_unit=kcal/mol group=Halogens
  N    0.602753823  -0.174127733  -2.001540106
  N   -0.102334009   0.812351312  -1.771516831
  H    0.708624518  -0.682687806  -1.110368886
  H   -0.210490848   1.323701610  -2.661080121
  F   -0.851217394   0.140817130   2.846755864
  F   -0.028134882  -0.914573277   2.444606386
