12
charge=0 charge_a=0 charge_b=0 selection_a=1-7 selection_b=8-12 scaling=1.05 benchmark_Eint=-1.279 benchmark_unit=kcal/mol group=Halogens
  C    1.761310781  -0.753234578  -2.554148893
  N    2.117798801   0.462073575  -1.822307182
  H    0.967161891  -1.352772026  -2.094556619
  H    2.643954091  -1.384108590  -2.654223967
  H    1.440932358  -0.485615204  -3.560537090
  H    2.426228673   0.238196802  -0.885863556
  H    1.315207550   1.068982074  -1.723563549
  C   -0.427283397  -0.027161798   1.159118135
  F    0.854917468  -0.142104836   1.534292352
  F   -0.580760571   1.145855736   0.528165526
  F   -0.707660722  -1.012839368   0.297297239
  H   -1.082502628  -0.080410506   2.026157772
