15
charge=0 charge_a=0 charge_b=0 selection_a=1-9 selection_b=10-15 scaling=1.05 benchmark_Eint=-4.044 benchmark_unit=kcal/mol group=Halogens
  N    0.585620388   0.599966392  -2.737179239
  C    1.660341810   0.946130469  -2.033685868
  N    2.616817645   0.116018565  -1.626645396
  C    2.430722997  -1.154469888  -1.975481646
  N    1.398235583  -1.620518574  -2.672744731
  C    0.508791943  -0.696585538  -3.026006442
  H    1.761274223   1.989957647  -1.763351160
  H    3.181311635  -1.869287390  -1.662014839
  H   -0.352184999  -1.027573108  -3.593293850
 Cl    1.018723044  -1.873698677   1.378527264
  C    0.408118728  -0.279867947   1.187835519
 Cl    1.381120045   0.963213044   1.858658197
  C   -0.747189190  -0.025893689   0.560173030
 Cl   -1.721045499  -1.271371026  -0.110652609
 Cl   -1.358774135   1.565346754   0.370756897
