9
charge=0 charge_a=0 charge_b=0 selection_a=1-4 selection_b=5-9 scaling=1.10 benchmark_Eint=-2.745 benchmark_unit=kcal/mol group=Halogens
  N    2.295347002   0.346367971  -2.938815499
  N    1.909811771  -0.560205669  -2.395261695
  N    1.504890608  -1.630735206  -1.941237007
  H    1.256091451  -1.533469330  -0.958208207
  C   -0.699825381   0.326452790   1.184293231
 Cl    0.342730996  -1.026698520   1.698447899
 Cl    0.198640797   1.456111704   0.154396013
 Cl   -2.155428492  -0.268237076   0.373063901
  H   -1.001863119   0.854847402   2.076324576
