4
charge=0 charge_a=0 charge_b=0 selection_a=1-2 selection_b=3-4 scaling=1.05 benchmark_Eint=-0.695 benchmark_unit=kcal/mol group=Halogens
  N   -0.411386187  -0.052872995  -2.630136763
  N   -1.262812018  -0.646638071  -2.297383746
 Cl   -0.506384239  -0.476940273   1.382299742
 Cl    1.040324514   0.646977004   0.767899114
