4
charge=0 charge_a=0 charge_b=0 selection_a=1-2 selection_b=3-4 scaling=1.10 benchmark_Eint=-0.612 benchmark_unit=kcal/mol group=Halogens
  N   -0.411386187  -0.052872995  -2.630136763
  N   -1.262812018  -0.646638071  -2.297383746
 Cl   -0.453395802  -0.456073838   1.552142932
 Cl    1.093312951   0.667843439   0.937742304
