15
charge=0 charge_a=0 charge_b=0 selection_a=1-9 selection_b=10-15 scaling=2.00 benchmark_Eint=-0.152 benchmark_unit=kcal/mol group=Halogens
  N    0.585620388   0.599966392  -2.737179239
  C    1.660341810   0.946130469  -2.033685868
  N    2.616817645   0.116018565  -1.626645396
  C    2.430722997  -1.154469888  -1.975481646
  N    1.398235583  -1.620518574  -2.672744731
  C    0.508791943  -0.696585538  -3.026006442
  H    1.761274223   1.989957647  -1.763351160
  H    3.181311635  -1.869287390  -1.662014839
  H   -0.352184999  -1.027573108  -3.593293850
 Cl   -0.505066279  -1.741603044   4.258715007
  C   -1.115670595  -0.147772314   4.068023262
 Cl   -0.142669278   1.095308677   4.738845940
  C   -2.270978513   0.106201944   3.440360773
 Cl   -3.244834822  -1.139275393   2.769535134
 Cl   -2.882563458   1.697442387   3.250944640
