4
charge=0 charge_a=0 charge_b=0 selection_a=1-2 selection_b=3-4 scaling=1.50 benchmark_Eint=-0.123 benchmark_unit=kcal/mol group=Halogens
  N   -0.411386187  -0.052872995  -2.630136763
  N   -1.262812018  -0.646638071  -2.297383746
 Cl   -0.029488311  -0.289142358   2.910888448
 Cl    1.517220442   0.834774919   2.296487820
