4
charge=0 charge_a=0 charge_b=0 selection_a=1-2 selection_b=3-4 scaling=0.90 benchmark_Eint=-0.198 benchmark_unit=kcal/mol group=Halogens
  N   -0.411386187  -0.052872995  -2.630136763
  N   -1.262812018  -0.646638071  -2.297383746
 Cl   -0.665349548  -0.539539578   0.872770174
 Cl    0.881359205   0.584377699   0.258369546
