15
charge=0 charge_a=0 charge_b=0 selection_a=1-9 selection_b=10-15 scaling=1.10 benchmark_Eint=-3.565 benchmark_unit=kcal/mol group=Halogens
  N    0.585620388   0.599966392  -2.737179239
  C    1.660341810   0.946130469  -2.033685868
  N    2.616817645   0.116018565  -1.626645396
  C    2.430722997  -1.154469888  -1.975481646
  N    1.398235583  -1.620518574  -2.672744731
  C    0.508791943  -0.696585538  -3.026006442
  H    1.761274223   1.989957647  -1.763351160
  H    3.181311635  -1.869287390  -1.662014839
  H   -0.352184999  -1.027573108  -3.593293850
 Cl    0.938523606  -1.866746276   1.530116092
  C    0.327919290  -0.272915546   1.339424347
 Cl    1.300920607   0.970165445   2.010247025
  C   -0.827388628  -0.018941288   0.711761858
 Cl   -1.801244937  -1.264418625   0.040936219
 Cl   -1.438973573   1.572299155   0.522345725
