9
charge=0 charge_a=0 charge_b=0 selection_a=1-4 selection_b=5-9 scaling=0.80 benchmark_Eint=0.239 benchmark_unit=kcal/mol group=Halogens
  N    2.295347002   0.346367971  -2.938815499
  N    1.909811771  -0.560205669  -2.395261695
  N    1.504890608  -1.630735206  -1.941237007
  H    1.256091451  -1.533469330  -0.958208207
  C   -0.231076628   0.187670556   0.573356761
 Cl    0.811479749  -1.165480754   1.087511429
 Cl    0.667389550   1.317329470  -0.456540457
 Cl   -1.686679739  -0.407019310  -0.237872569
  H   -0.533114366   0.716065168   1.465388106
