11
charge=0 charge_a=0 charge_b=0 selection_a=1-6 selection_b=7-11 scaling=0.95 benchmark_Eint=-2.412 benchmark_unit=kcal/mol group=Halogens
  N   -0.538136687  -0.308447075  -1.516085312
  N    0.348717624   0.803936725  -1.662128324
  H   -0.066989790  -1.132458511  -1.159988437
  H   -0.920475126  -0.525407098  -2.425225760
  H    1.297568213   0.511305575  -1.866802393
  H    0.362817522   1.298877592  -0.781242222
  C   -0.060598275  -0.791982380   2.203622387
 Br   -0.632815168   1.043482188   1.873091397
 Br   -1.443227182  -2.032286211   1.614936266
 Br    0.267038008  -1.035646409   4.114030536
 Br    1.598277684  -1.148530210   1.221661817
