7
charge=0 charge_a=0 charge_b=0 selection_a=1-2 selection_b=3-7 scaling=0.85 benchmark_Eint=-0.219 benchmark_unit=kcal/mol group=Halogens
  N   -0.079207837   0.154529905  -2.768948062
  N   -0.507697390   1.094955679  -3.114586797
  C    0.707808312  -1.481644428  -0.114411500
 Br   -0.101610623   0.188427859   0.508985949
  H    1.727773179  -1.505379304   0.247284814
  H    0.672619216  -1.475128861  -1.195921765
  H    0.127667126  -2.298712613   0.294894309
