11
charge=0 charge_a=0 charge_b=0 selection_a=1-9 selection_b=10-11 scaling=1.10 benchmark_Eint=-2.189 benchmark_unit=kcal/mol group=Halogens
  N   -2.454988029   0.342260333  -2.789081350
  C   -1.695994718   1.424612577  -2.638843016
  N   -0.368947332   1.431809850  -2.549071706
  C    0.195292765   0.229201522  -2.619479753
  N   -0.455346801  -0.921613039  -2.767881772
  C   -1.777705674  -0.801570771  -2.845651804
  H   -2.201530716   2.381052736  -2.584033702
  H    1.274612405   0.182854007  -2.547247579
  H   -2.351807696  -1.712450652  -2.964190647
 Br   -1.366032236  -0.062085623   1.163854823
 Br    0.933949194  -0.190701356   1.332898648
