7
charge=0 charge_a=0 charge_b=0 selection_a=1-2 selection_b=3-7 scaling=1.50 benchmark_Eint=-0.312 benchmark_unit=kcal/mol group=Halogens
  N   -0.079207837   0.154529905  -2.768948062
  N   -0.507697390   1.094955679  -3.114586797
  C    0.875162157  -1.847834404   1.613595509
 Br    0.065743222  -0.177762117   2.236992958
  H    1.895127024  -1.871569280   1.975291823
  H    0.839973061  -1.841318837   0.532085244
  H    0.295020971  -2.664902589   2.022901318
