12
charge=0 charge_a=0 charge_b=0 selection_a=1-7 selection_b=8-12 scaling=0.80 benchmark_Eint=-0.164 benchmark_unit=kcal/mol group=Halogens
  N    1.952852363  -0.113842715  -1.625377478
  N    0.824078592  -0.074674706  -1.647539108
  N   -0.394285623  -0.171152913  -1.704572680
  C   -1.158598598   1.043842887  -1.375690292
  H   -2.206640472   0.791585995  -1.491048939
  H   -0.912489247   1.860999679  -2.055353454
  H   -0.975227163   1.352417216  -0.346847093
  C    0.632910513  -1.787196427   0.613084459
 Br    0.324331156  -0.058706840   1.484261142
  H    1.645352580  -1.778506336   0.231153283
  H   -0.090628085  -1.877187552  -0.186844878
  H    0.497927573  -2.556110313   1.362440683
