11
charge=0 charge_a=0 charge_b=0 selection_a=1-6 selection_b=7-11 scaling=1.25 benchmark_Eint=-1.491 benchmark_unit=kcal/mol group=Halogens
  N   -0.538136687  -0.308447075  -1.516085312
  N    0.348717624   0.803936725  -1.662128324
  H   -0.066989790  -1.132458511  -1.159988437
  H   -0.920475126  -0.525407098  -2.425225760
  H    1.297568213   0.511305575  -1.866802393
  H    0.362817522   1.298877592  -0.781242222
  C   -0.058622513  -1.023467197   3.068601003
 Br   -0.630839406   0.811997371   2.738070013
 Br   -1.441251420  -2.263771028   2.479914882
 Br    0.269013770  -1.267131226   4.979009152
 Br    1.600253446  -1.380015027   2.086640433
