11
charge=0 charge_a=0 charge_b=0 selection_a=1-6 selection_b=7-11 scaling=0.90 benchmark_Eint=-1.900 benchmark_unit=kcal/mol group=Halogens
  N   -0.538136687  -0.308447075  -1.516085312
  N    0.348717624   0.803936725  -1.662128324
  H   -0.066989790  -1.132458511  -1.159988437
  H   -0.920475126  -0.525407098  -2.425225760
  H    1.297568213   0.511305575  -1.866802393
  H    0.362817522   1.298877592  -0.781242222
  C   -0.060927568  -0.753401577   2.059459285
 Br   -0.633144461   1.082062991   1.728928295
 Br   -1.443556475  -1.993705408   1.470773164
 Br    0.266708715  -0.997065606   3.969867434
 Br    1.597948391  -1.109949407   1.077498715
