12
charge=0 charge_a=0 charge_b=0 selection_a=1-7 selection_b=8-12 scaling=1.05 benchmark_Eint=-3.430 benchmark_unit=kcal/mol group=Halogens
  N    1.952852363  -0.113842715  -1.625377478
  N    0.824078592  -0.074674706  -1.647539108
  N   -0.394285623  -0.171152913  -1.704572680
  C   -1.158598598   1.043842887  -1.375690292
  H   -2.206640472   0.791585995  -1.491048939
  H   -0.912489247   1.860999679  -2.055353454
  H   -0.975227163   1.352417216  -0.346847093
  C    0.657525415  -1.913285436   1.290789648
 Br    0.348946058  -0.184795849   2.161966331
  H    1.669967482  -1.904595345   0.908858472
  H   -0.066013183  -2.003276561   0.490860311
  H    0.522542475  -2.682199322   2.040145872
