12
charge=0 charge_a=0 charge_b=0 selection_a=1-7 selection_b=8-12 scaling=0.90 benchmark_Eint=-3.177 benchmark_unit=kcal/mol group=Halogens
  N    1.952852363  -0.113842715  -1.625377478
  N    0.824078592  -0.074674706  -1.647539108
  N   -0.394285623  -0.171152913  -1.704572680
  C   -1.158598598   1.043842887  -1.375690292
  H   -2.206640472   0.791585995  -1.491048939
  H   -0.912489247   1.860999679  -2.055353454
  H   -0.975227163   1.352417216  -0.346847093
  C    0.642756474  -1.837632031   0.884166535
 Br    0.334177117  -0.109142444   1.755343218
  H    1.655198541  -1.828941940   0.502235359
  H   -0.080782124  -1.927623156   0.084237198
  H    0.507773534  -2.606545917   1.633522759
