9
charge=0 charge_a=0 charge_b=0 selection_a=1-4 selection_b=5-9 scaling=0.90 benchmark_Eint=-2.861 benchmark_unit=kcal/mol group=Halogens
  N    1.726771538  -0.248867121  -1.830770925
  N    0.637185730  -0.052325887  -1.629263542
  N   -0.583016302   0.085042319  -1.545288886
  H   -0.833058441   0.558675940  -0.676836371
  C   -0.900852591  -0.706347493   2.231982975
  I    1.056361913  -1.340433960   1.540664171
  I   -1.165926911   1.411854138   1.774892762
  I   -1.054524169  -0.993301805   4.376446443
  I   -2.438476344  -1.852004973   1.219914254
