12
charge=0 charge_a=0 charge_b=0 selection_a=1-7 selection_b=8-12 scaling=1.10 benchmark_Eint=-2.812 benchmark_unit=kcal/mol group=Halogens
  C    0.530778241  -0.603981187  -1.972556771
  N   -0.294447821   0.450766619  -1.388675892
  H    1.102769535  -1.195793098  -1.248970075
  H    1.235586097  -0.160892870  -2.675290417
  H   -0.104194463  -1.286084669  -2.536934848
  H    0.272622106   1.107602842  -0.869654514
  H   -0.963524196   0.066057679  -0.735425503
  C    0.590595721   0.021188426   2.780115687
  I   -0.266451217  -1.855950850   2.171871548
  I    2.476917601   0.429147060   1.829503875
  I   -0.793775705   1.660482192   2.628354286
  H    0.809350893  -0.084061407   3.830789007
