12
charge=0 charge_a=0 charge_b=0 selection_a=1-7 selection_b=8-12 scaling=1.50 benchmark_Eint=-0.885 benchmark_unit=kcal/mol group=Halogens
  C    0.530778241  -0.603981187  -1.972556771
  N   -0.294447821   0.450766619  -1.388675892
  H    1.102769535  -1.195793098  -1.248970075
  H    1.235586097  -0.160892870  -2.675290417
  H   -0.104194463  -1.286084669  -2.536934848
  H    0.272622106   1.107602842  -0.869654514
  H   -0.963524196   0.066057679  -0.735425503
  C    0.710088876   0.073051699   4.090073644
  I   -0.146958062  -1.804087577   3.481829505
  I    2.596410756   0.481010333   3.139461832
  I   -0.674282550   1.712345465   3.938312243
  H    0.928844048  -0.032198134   5.140746964
