7
charge=0 charge_a=0 charge_b=0 selection_a=1-2 selection_b=3-7 scaling=0.95 benchmark_Eint=-0.962 benchmark_unit=kcal/mol group=Halogens
  N    0.775924411   2.358062291  -2.788017951
  N    0.406261856   1.332924058  -2.791678795
  C   -0.386797655  -1.549389918  -0.980183570
  I   -0.040551766  -0.113752699   0.587369297
  H   -0.350173415  -1.012290293  -1.918385005
  H   -1.361328333  -1.986913111  -0.807978113
  H    0.397069186  -2.292572840  -0.916172349
