7
charge=0 charge_a=0 charge_b=0 selection_a=1-2 selection_b=3-7 scaling=0.90 benchmark_Eint=-0.706 benchmark_unit=kcal/mol group=Halogens
  N    0.775924411   2.358062291  -2.788017951
  N    0.406261856   1.332924058  -2.791678795
  C   -0.363397775  -1.475427618  -1.092258541
  I   -0.017151886  -0.039790399   0.475294326
  H   -0.326773535  -0.938327993  -2.030459976
  H   -1.337928453  -1.912950811  -0.920053084
  H    0.420469066  -2.218610540  -1.028247320
