14
charge=0 charge_a=0 charge_b=0 selection_a=1-9 selection_b=10-14 scaling=0.95 benchmark_Eint=-4.709 benchmark_unit=kcal/mol group=Halogens
  N   -1.419924354   0.099636492  -2.217119670
  C   -0.564641688   1.114354966  -2.312201751
  N    0.650195964   1.155025376  -1.771547766
  C    0.987645458   0.066746906  -1.086486673
  N    0.216261425  -1.005856328  -0.916050359
  C   -0.976275216  -0.929514706  -1.502792302
  H   -0.884344363   1.980668267  -2.878357126
  H    1.965358506   0.052747216  -0.622649699
  H   -1.641108792  -1.776534490  -1.386860878
  C   -0.127574434  -0.795221122   2.230527378
  I    1.737595961   0.178812905   2.642724960
  I   -1.768472509   0.516025930   1.800534569
  H   -0.391868038  -1.369978167   3.105148356
  H    0.025265429  -1.404122532   1.350930930
