12
charge=0 charge_a=0 charge_b=0 selection_a=1-7 selection_b=8-12 scaling=1.25 benchmark_Eint=-1.931 benchmark_unit=kcal/mol group=Halogens
  C    0.530778241  -0.603981187  -1.972556771
  N   -0.294447821   0.450766619  -1.388675892
  H    1.102769535  -1.195793098  -1.248970075
  H    1.235586097  -0.160892870  -2.675290417
  H   -0.104194463  -1.286084669  -2.536934848
  H    0.272622106   1.107602842  -0.869654514
  H   -0.963524196   0.066057679  -0.735425503
  C    0.635405654   0.040637153   3.271349921
  I   -0.221641284  -1.836502123   2.663105782
  I    2.521727534   0.448595787   2.320738109
  I   -0.748965772   1.679930919   3.119588520
  H    0.854160826  -0.064612680   4.322023241
