9
charge=0 charge_a=0 charge_b=0 selection_a=1-4 selection_b=5-9 scaling=1.05 benchmark_Eint=-3.625 benchmark_unit=kcal/mol group=Halogens
  N    1.726771538  -0.248867121  -1.830770925
  N    0.637185730  -0.052325887  -1.629263542
  N   -0.583016302   0.085042319  -1.545288886
  H   -0.833058441   0.558675940  -0.676836371
  C   -1.050899687  -0.771722163   2.629810374
  I    0.906314817  -1.405808630   1.938491570
  I   -1.315974007   1.346479468   2.172720161
  I   -1.204571265  -1.058676475   4.774273842
  I   -2.588523440  -1.917379643   1.617741653
