14
charge=0 charge_a=0 charge_b=0 selection_a=1-9 selection_b=10-14 scaling=0.85 benchmark_Eint=-2.722 benchmark_unit=kcal/mol group=Halogens
  N   -1.419924354   0.099636492  -2.217119670
  C   -0.564641688   1.114354966  -2.312201751
  N    0.650195964   1.155025376  -1.771547766
  C    0.987645458   0.066746906  -1.086486673
  N    0.216261425  -1.005856328  -0.916050359
  C   -0.976275216  -0.929514706  -1.502792302
  H   -0.884344363   1.980668267  -2.878357126
  H    1.965358506   0.052747216  -0.622649699
  H   -1.641108792  -1.776534490  -1.386860878
  C   -0.137799057  -0.807760869   1.988351628
  I    1.727371338   0.166273158   2.400549210
  I   -1.778697132   0.503486183   1.558358819
  H   -0.402092661  -1.382517914   2.862972606
  H    0.015040806  -1.416662279   1.108755180
