9
charge=0 charge_a=0 charge_b=0 selection_a=1-4 selection_b=5-9 scaling=0.90 benchmark_Eint=-1.105 benchmark_unit=kcal/mol group=Halogens
  C   -0.823386311   1.170206091  -2.000235177
  O   -0.834293755   1.707795492  -3.071736881
  H   -1.280818838   1.632031757  -1.107201711
  H   -0.354185953   0.181701357  -1.846044130
  C    0.236225381  -0.123041449   1.097870088
  F    0.738937252   1.049104628   0.683996615
  F   -1.096693185  -0.083049646   0.952323111
  F    0.717881302  -1.091780827   0.308488633
  H    0.501443507  -0.307197188   2.136683652
