28
charge=0 charge_a=0 charge_b=0 selection_a=1-22 selection_b=23-28 scaling=1.25 benchmark_Eint=-2.616 benchmark_unit=kcal/mol group=Halogens
  C    0.974570423  -1.165069609  -1.946559616
  C   -0.336750412  -1.669312253  -1.371660973
  C   -0.308567841  -3.134105136  -0.985061484
  O   -0.704640766  -0.985484722  -0.170070171
  O   -0.879387252   0.419319717  -0.485014490
  C   -1.957258925   0.539491199  -1.416392574
  C   -1.972389702   2.006205962  -1.797333427
  C   -3.271359723   0.042675562  -0.841757086
  O   -1.588339928  -0.145993028  -2.611561765
  O   -1.419495611  -1.551375988  -2.292718415
  H    1.771765122  -1.326627151  -1.225249408
  H    0.921586966  -0.108436097  -2.179978318
  H    1.201043082  -1.715164399  -2.857201016
  H    0.458135815  -3.293020592  -0.230639465
  H   -0.075370939  -3.735185236  -1.860573352
  H   -1.273364140  -3.437380306  -0.587382781
  H   -2.185891685   2.606677234  -0.916345709
  H   -2.746030250   2.179243844  -2.541436587
  H   -1.008848717   2.298469604  -2.206153151
  H   -3.514619053   0.616318654   0.049936000
  H   -3.211806832  -1.006752098  -0.578680947
  H   -4.059980735   0.176708373  -1.578919501
  F    1.012531769  -0.076835714   3.312021707
  C    1.812097086   0.193820038   2.301445420
  F    2.530526042  -0.846409303   1.918061775
  C    1.881627778   1.374373890   1.720323938
  F    1.161159087   2.413081519   2.091175356
  F    2.670200985   1.632132547   0.694147171
