9
charge=0 charge_a=0 charge_b=0 selection_a=1-4 selection_b=5-9 scaling=0.85 benchmark_Eint=-0.624 benchmark_unit=kcal/mol group=Halogens
  C   -0.823386311   1.170206091  -2.000235177
  O   -0.834293755   1.707795492  -3.071736881
  H   -1.280818838   1.632031757  -1.107201711
  H   -0.354185953   0.181701357  -1.846044130
  C    0.197530364  -0.063520371   0.967484634
  F    0.700242235   1.108625706   0.553611161
  F   -1.135388202  -0.023528568   0.821937657
  F    0.679186285  -1.032259749   0.178103179
  H    0.462748490  -0.247676110   2.006298198
