8
charge=0 charge_a=0 charge_b=0 selection_a=1-3 selection_b=4-8 scaling=1.25 benchmark_Eint=-0.949 benchmark_unit=kcal/mol group=Halogens
  O   -0.745989919   1.564245157  -1.829660854
  C   -1.030960283   2.223467861  -0.920521628
  O   -1.318626784   2.889037626  -0.016825876
  C    0.675470106  -1.777711229   1.010762880
 Cl    1.643694279  -0.307102502   1.253166206
 Cl   -1.053365839  -1.449491075   1.260507038
 Cl    0.971943506  -2.488057194  -0.583817445
  H    0.981378802  -2.495123340   1.757499466
