8
charge=0 charge_a=0 charge_b=0 selection_a=1-3 selection_b=4-8 scaling=0.85 benchmark_Eint=-0.193 benchmark_unit=kcal/mol group=Halogens
  O   -0.745989919   1.564245157  -1.829660854
  C   -1.030960283   2.223467861  -0.920521628
  O   -1.318626784   2.889037626  -0.016825876
  C    0.168188173  -0.588268695   0.490569998
 Cl    1.136412346   0.882340032   0.732973324
 Cl   -1.560647772  -0.260048541   0.740314156
 Cl    0.464661573  -1.298614660  -1.104010327
  H    0.474096869  -1.305680806   1.237306584
