8
charge=0 charge_a=0 charge_b=0 selection_a=1-3 selection_b=4-8 scaling=1.10 benchmark_Eint=-1.601 benchmark_unit=kcal/mol group=Halogens
  O   -0.745989919   1.564245157  -1.829660854
  C   -1.030960283   2.223467861  -0.920521628
  O   -1.318626784   2.889037626  -0.016825876
  C    0.485239381  -1.331670279   0.815690549
 Cl    1.453463554   0.138938448   1.058093875
 Cl   -1.243596564  -1.003450125   1.065434707
 Cl    0.781712781  -2.042016244  -0.778889776
  H    0.791148077  -2.049082390   1.562427135
