8
charge=0 charge_a=0 charge_b=0 selection_a=1-3 selection_b=4-8 scaling=2.00 benchmark_Eint=-0.071 benchmark_unit=kcal/mol group=Halogens
  O   -0.745989919   1.564245157  -1.829660854
  C   -1.030960283   2.223467861  -0.920521628
  O   -1.318626784   2.889037626  -0.016825876
  C    1.626623729  -4.007915982   1.986124534
 Cl    2.594847902  -2.537307255   2.228527860
 Cl   -0.102212216  -3.679695828   2.235868692
 Cl    1.923097129  -4.718261947   0.391544209
  H    1.932532425  -4.725328093   2.732861120
