8
charge=0 charge_a=0 charge_b=0 selection_a=1-3 selection_b=4-8 scaling=0.90 benchmark_Eint=-2.572 benchmark_unit=kcal/mol group=Halogens
  O    1.317363080   1.191756302  -2.619172468
  C    0.192438193   1.192608915  -2.349106609
  O   -0.938507167   1.199177820  -2.090160643
  C   -0.727696517  -0.069169846   0.644481948
 Br    0.128332078  -1.525203990  -0.318035540
 Br    0.464989304   1.418815738   1.021939514
  H   -1.074687280  -0.459428243   1.589086155
  H   -1.525923928   0.305352389   0.022173225
