8
charge=0 charge_a=0 charge_b=0 selection_a=1-3 selection_b=4-8 scaling=1.50 benchmark_Eint=-0.869 benchmark_unit=kcal/mol group=Halogens
  O    1.317363080   1.191756302  -2.619172468
  C    0.192438193   1.192608915  -2.349106609
  O   -0.938507167   1.199177820  -2.090160643
  C   -0.718728942  -0.723682463   2.075083254
 Br    0.137299653  -2.179716607   1.112565766
 Br    0.473956879   0.764303121   2.452540820
  H   -1.065719705  -1.113940860   3.019687461
  H   -1.516956353  -0.349160228   1.452774531
