11
charge=0 charge_a=0 charge_b=0 selection_a=1-9 selection_b=10-11 scaling=0.90 benchmark_Eint=-1.281 benchmark_unit=kcal/mol group=Halogens
  C   -1.182832774  -0.555450219  -1.886530133
  O    0.115623312  -0.049277517  -1.676444655
  C    0.211811028   1.327395719  -1.959742940
  H   -1.165064433  -1.612658058  -1.634907431
  H   -1.492492161  -0.439298470  -2.931643621
  H   -1.915590578  -0.049895267  -1.247460872
  H    1.237001054   1.630508649  -1.762202750
  H   -0.461852022   1.912803192  -1.323604964
  H   -0.029078630   1.537871400  -3.008383243
 Br    0.096887681  -1.446270186   1.299881620
 Br   -0.700401022   0.716840560   1.434330691
