8
charge=0 charge_a=0 charge_b=0 selection_a=1-3 selection_b=4-8 scaling=1.10 benchmark_Eint=-2.557 benchmark_unit=kcal/mol group=Halogens
  O    1.317363080   1.191756302  -2.619172468
  C    0.192438193   1.192608915  -2.349106609
  O   -0.938507167   1.199177820  -2.090160643
  C   -0.724707325  -0.287340718   1.121349050
 Br    0.131321270  -1.743374862   0.158831562
 Br    0.467978496   1.200644866   1.498806616
  H   -1.071698088  -0.677599115   2.065953257
  H   -1.522934736   0.087181517   0.499040327
