5
charge=0 charge_a=0 charge_b=0 selection_a=1-3 selection_b=4-5 scaling=1.10 benchmark_Eint=-1.329 benchmark_unit=kcal/mol group=Halogens
  O    0.002179939   0.273292874  -1.770358320
  C   -1.094698159   0.001680596  -1.514433916
  O   -2.193170106  -0.269097644  -1.264533420
  I    0.159213872  -1.821534358   2.033022452
  I   -0.362123573   0.768506670   2.529033062
