5
charge=0 charge_a=0 charge_b=0 selection_a=1-3 selection_b=4-5 scaling=0.95 benchmark_Eint=-1.519 benchmark_unit=kcal/mol group=Halogens
  O    0.002179939   0.273292874  -1.770358320
  C   -1.094698159   0.001680596  -1.514433916
  O   -2.193170106  -0.269097644  -1.264533420
  I    0.015428542  -1.745071820   1.483581821
  I   -0.505908903   0.844969208   1.979592431
