19
charge=0 charge_a=0 charge_b=0 selection_a=1-5 selection_b=6-19 scaling=1.25 benchmark_Eint=-0.762 benchmark_unit=kcal/mol group=Halogens
  C    0.019170542   0.505373377  -1.943758742
  F    0.977490333  -0.394620754  -1.791026260
  F   -1.162181430  -0.063588595  -1.764656169
  F    0.082733974   1.013694867  -3.168931177
  F    0.181071907   1.480550205  -1.058060217
  B   -0.287248789  -1.498899218   2.384931904
  B    0.810171196  -0.271512434   2.755732689
  B   -1.176578696  -1.428209623   3.817869190
  B    0.593236575  -1.701750521   3.810722564
  B   -0.959905578   0.002131420   2.762875561
  H   -0.396733877  -2.183058286   1.434026231
  H    1.713823628   0.177886543   2.149297587
  H   -2.107165393  -2.045754892   4.192169820
  H    1.296782000  -2.571985248   4.178381263
  H   -1.690527042   0.704165563   2.163147120
  H    1.234865899  -0.539141410   3.999593836
  H    0.063267941   0.747196654   3.207024858
  H   -0.264169052  -1.412720012   4.801024623
  H   -1.435540228  -0.126269829   4.010392440
