19
charge=0 charge_a=0 charge_b=0 selection_a=1-5 selection_b=6-19 scaling=1.50 benchmark_Eint=-0.322 benchmark_unit=kcal/mol group=Halogens
  C    0.019170542   0.505373377  -1.943758742
  F    0.977490333  -0.394620754  -1.791026260
  F   -1.162181430  -0.063588595  -1.764656169
  F    0.082733974   1.013694867  -3.168931177
  F    0.181071907   1.480550205  -1.058060217
  B   -0.319523857  -1.713792862   3.132009391
  B    0.777896128  -0.486406078   3.502810176
  B   -1.208853764  -1.643103267   4.564946677
  B    0.560961507  -1.916644165   4.557800051
  B   -0.992180646  -0.212762224   3.509953048
  H   -0.429008945  -2.397951930   2.181103718
  H    1.681548560  -0.037007101   2.896375074
  H   -2.139440461  -2.260648536   4.939247307
  H    1.264506932  -2.786878892   4.925458750
  H   -1.722802110   0.489271919   2.910224607
  H    1.202590831  -0.754035054   4.746671323
  H    0.030992873   0.532303010   3.954102345
  H   -0.296444120  -1.627613656   5.548102110
  H   -1.467815296  -0.341163473   4.757469927
