19
charge=0 charge_a=0 charge_b=0 selection_a=1-5 selection_b=6-19 scaling=0.95 benchmark_Eint=-1.476 benchmark_unit=kcal/mol group=Halogens
  C    0.019170542   0.505373377  -1.943758742
  F    0.977490333  -0.394620754  -1.791026260
  F   -1.162181430  -0.063588595  -1.764656169
  F    0.082733974   1.013694867  -3.168931177
  F    0.181071907   1.480550205  -1.058060217
  B   -0.248518709  -1.241026845   1.488438918
  B    0.848901276  -0.013640061   1.859239703
  B   -1.137848616  -1.170337250   2.921376204
  B    0.631966655  -1.443878148   2.914229578
  B   -0.921175498   0.260003793   1.866382575
  H   -0.358003797  -1.925185913   0.537533245
  H    1.752553708   0.435758916   1.252804601
  H   -2.068435313  -1.787882519   3.295676834
  H    1.335512080  -2.314112875   3.281888277
  H   -1.651796962   0.962037936   1.266654134
  H    1.273595979  -0.281269037   3.103100850
  H    0.101998021   1.005069027   2.310531872
  H   -0.225438972  -1.154847639   3.904531637
  H   -1.396810148   0.131602544   3.113899454
