17
charge=0 charge_a=0 charge_b=0 selection_a=1-5 selection_b=6-17 scaling=0.80 benchmark_Eint=0.850 benchmark_unit=kcal/mol group=Halogens
  C    0.227054821  -0.361976001  -1.848191762
  F    0.895887272  -1.195314356  -2.695217811
  F   -1.082065700  -0.326934025  -2.226459747
  H    0.643989465   0.639226671  -1.940970262
  H    0.289093634  -0.761725587  -0.838614668
  B    0.953138474  -0.333338560   1.471298988
  H    1.696047343  -1.102131446   1.992811971
  N    1.425016279   0.882067921   0.889875915
  H    2.408386134   1.086057251   0.937368751
  B    0.560346164   1.833387861   0.269669009
  H    0.982778708   2.840851848  -0.202272965
  N   -0.828370617   1.513211725   0.223087260
  H   -1.457991951   2.163718335  -0.214423003
  B   -1.371396526   0.317353988   0.782739644
  H   -2.536096685   0.084131929   0.742775220
  N   -0.448048197  -0.589691892   1.386460778
  H   -0.805718966  -1.438650355   1.789426339
