17
charge=0 charge_a=0 charge_b=0 selection_a=1-5 selection_b=6-17 scaling=0.95 benchmark_Eint=-2.415 benchmark_unit=kcal/mol group=Halogens
  C   -0.073296682   0.585435521  -2.184896818
 Cl    1.279917121  -0.542287428  -1.968589374
 Cl   -1.596697530  -0.120039158  -1.609261031
 Cl    0.253681005   2.141151031  -1.396020559
  H   -0.178297015   0.771044113  -3.243281669
  B    1.431494875  -0.979353850   1.412170185
  H    2.347760596  -1.705438243   1.187295853
  N    1.626270088   0.414173771   1.645311082
  H    2.560997500   0.781427360   1.607690950
  B    0.550157929   1.314090761   1.902944384
  H    0.741164301   2.475414805   2.082197205
  N   -0.764478408   0.762077718   1.938199990
  H   -1.539677811   1.378232409   2.109742196
  B   -1.029866618  -0.621180944   1.713733513
  H   -2.139193566  -1.052582467   1.737233656
  N    0.091604170  -1.465599467   1.461713152
  H   -0.071380715  -2.442684695   1.292179346
