17
charge=0 charge_a=0 charge_b=0 selection_a=1-5 selection_b=6-17 scaling=0.85 benchmark_Eint=0.713 benchmark_unit=kcal/mol group=Halogens
  C   -0.073296682   0.585435521  -2.184896818
 Cl    1.279917121  -0.542287428  -1.968589374
 Cl   -1.596697530  -0.120039158  -1.609261031
 Cl    0.253681005   2.141151031  -1.396020559
  H   -0.178297015   0.771044113  -3.243281669
  B    1.395848658  -0.917329903   1.060681651
  H    2.312114379  -1.643414296   0.835807319
  N    1.590623871   0.476197718   1.293822548
  H    2.525351283   0.843451307   1.256202416
  B    0.514511712   1.376114708   1.551455850
  H    0.705518084   2.537438752   1.730708671
  N   -0.800124625   0.824101665   1.586711456
  H   -1.575324028   1.440256356   1.758253662
  B   -1.065512835  -0.559156997   1.362244979
  H   -2.174839783  -0.990558520   1.385745122
  N    0.055957953  -1.403575520   1.110224618
  H   -0.107026932  -2.380660748   0.940690812
