17
charge=0 charge_a=0 charge_b=0 selection_a=1-5 selection_b=6-17 scaling=1.50 benchmark_Eint=-0.470 benchmark_unit=kcal/mol group=Halogens
  C   -0.073296682   0.585435521  -2.184896818
 Cl    1.279917121  -0.542287428  -1.968589374
 Cl   -1.596697530  -0.120039158  -1.609261031
 Cl    0.253681005   2.141151031  -1.396020559
  H   -0.178297015   0.771044113  -3.243281669
  B    1.627549065  -1.320485561   3.345357121
  H    2.543814786  -2.046569954   3.120482789
  N    1.822324278   0.073042060   3.578498018
  H    2.757051690   0.440295649   3.540877886
  B    0.746212119   0.972959050   3.836131320
  H    0.937218491   2.134283094   4.015384141
  N   -0.568424218   0.420946007   3.871386926
  H   -1.343623621   1.037100698   4.042929132
  B   -0.833812428  -0.962312655   3.646920449
  H   -1.943139376  -1.393714178   3.670420592
  N    0.287658360  -1.806731178   3.394900088
  H    0.124673475  -2.783816406   3.225366282
