18
charge=0 charge_a=0 charge_b=0 selection_a=1-2 selection_b=3-18 scaling=2.00 benchmark_Eint=-0.161 benchmark_unit=kcal/mol group=Halogens
 Cl    0.091155793   0.154956221  -1.765881757
 Cl   -1.744895943  -0.462029859  -1.234937740
  B    3.288886418   0.835898426   5.104290377
  B    1.870037306  -0.118445996   4.777487325
  B    3.473000897  -0.596287993   4.161429493
  B    1.701599373   1.688857155   4.592212906
  B    4.489348705   0.709728600   3.648533804
  H    3.677522250   0.908230280   6.215223756
  H    1.343967347  -0.805726396   5.575582851
  H    3.906720712  -1.580535028   4.642810690
  H    1.107092482   2.141791115   5.509712772
  H    5.626531660   0.452383667   3.861111543
  H    2.210603067  -0.837375685   3.732396132
  H    1.023423679   0.568146874   4.139917071
  H    3.963556745  -0.375261398   2.997285359
  H    1.611202864   2.245846893   3.542131187
  H    4.230655945   1.554825555   2.857810308
  H    3.096600789   1.947326603   4.565655525
