17
charge=0 charge_a=0 charge_b=0 selection_a=1-5 selection_b=6-17 scaling=0.90 benchmark_Eint=-1.484 benchmark_unit=kcal/mol group=Halogens
  C   -0.073296682   0.585435521  -2.184896818
 Cl    1.279917121  -0.542287428  -1.968589374
 Cl   -1.596697530  -0.120039158  -1.609261031
 Cl    0.253681005   2.141151031  -1.396020559
  H   -0.178297015   0.771044113  -3.243281669
  B    1.413671767  -0.948341877   1.236425918
  H    2.329937488  -1.674426270   1.011551586
  N    1.608446980   0.445185744   1.469566815
  H    2.543174392   0.812439333   1.431946683
  B    0.532334821   1.345102734   1.727200117
  H    0.723341193   2.506426778   1.906452938
  N   -0.782301516   0.793089691   1.762455723
  H   -1.557500919   1.409244382   1.933997929
  B   -1.047689726  -0.590168971   1.537989246
  H   -2.157016674  -1.021570494   1.561489389
  N    0.073781062  -1.434587494   1.285968885
  H   -0.089203823  -2.411672722   1.116435079
