17
charge=0 charge_a=0 charge_b=0 selection_a=1-5 selection_b=6-17 scaling=1.05 benchmark_Eint=-2.530 benchmark_unit=kcal/mol group=Halogens
  C   -0.073296682   0.585435521  -2.184896818
 Cl    1.279917121  -0.542287428  -1.968589374
 Cl   -1.596697530  -0.120039158  -1.609261031
 Cl    0.253681005   2.141151031  -1.396020559
  H   -0.178297015   0.771044113  -3.243281669
  B    1.467141091  -1.041377798   1.763658719
  H    2.383406812  -1.767462191   1.538784387
  N    1.661916304   0.352149823   1.996799616
  H    2.596643716   0.719403412   1.959179484
  B    0.585804145   1.252066813   2.254432918
  H    0.776810517   2.413390857   2.433685739
  N   -0.728832192   0.700053770   2.289688524
  H   -1.504031595   1.316208461   2.461230730
  B   -0.994220402  -0.683204892   2.065222047
  H   -2.103547350  -1.114606415   2.088722190
  N    0.127250386  -1.527623415   1.813201686
  H   -0.035734499  -2.504708643   1.643667880
