16
charge=0 charge_a=0 charge_b=0 selection_a=1-2 selection_b=3-16 scaling=1.10 benchmark_Eint=-1.740 benchmark_unit=kcal/mol group=Halogens
 Br    1.131235425  -0.599705547  -2.035621320
 Br   -0.976398586   0.309019962  -1.773729524
  B   -1.001223809  -0.065506645   2.706233061
  B   -0.163185221  -1.352265116   2.007268772
  B    0.137075252   0.308208811   3.895313507
  B   -0.581050564  -1.325081873   3.748541800
  B    0.555098748   0.280996812   2.154120821
  H   -2.043341376   0.416040959   2.446336738
  H   -0.429367236  -2.061666849   1.106635176
  H    0.148752988   1.134564579   4.734824643
  H   -1.233235873  -2.008336708   4.452526112
  H    0.952860622   1.082033496   1.388945222
  H    0.233123363  -2.117128071   3.036321023
  H    1.088217083  -0.905301899   1.827555559
  H    0.457657740  -0.864674396   4.461738391
  H    1.315995676   0.344679547   3.257475530
