16
charge=0 charge_a=0 charge_b=0 selection_a=1-2 selection_b=3-16 scaling=0.95 benchmark_Eint=-1.955 benchmark_unit=kcal/mol group=Halogens
 Br    1.131235425  -0.599705547  -2.035621320
 Br   -0.976398586   0.309019962  -1.773729524
  B   -0.974072402  -0.032594854   2.183078163
  B   -0.136033814  -1.319353325   1.484113874
  B    0.164226659   0.341120602   3.372158609
  B   -0.553899157  -1.292170082   3.225386902
  B    0.582250155   0.313908603   1.630965923
  H   -2.016189969   0.448952750   1.923181840
  H   -0.402215829  -2.028755058   0.583480278
  H    0.175904395   1.167476370   4.211669745
  H   -1.206084466  -1.975424917   3.929371214
  H    0.980012029   1.114945287   0.865790324
  H    0.260274770  -2.084216280   2.513166125
  H    1.115368490  -0.872390108   1.304400661
  H    0.484809147  -0.831762605   3.938583493
  H    1.343147083   0.377591338   2.734320632
