16
charge=0 charge_a=0 charge_b=0 selection_a=1-2 selection_b=3-16 scaling=0.85 benchmark_Eint=-0.032 benchmark_unit=kcal/mol group=Halogens
 Br    1.131235425  -0.599705547  -2.035621320
 Br   -0.976398586   0.309019962  -1.773729524
  B   -0.955971464  -0.010653660   1.834308231
  B   -0.117932876  -1.297412131   1.135343942
  B    0.182327597   0.363061796   3.023388677
  B   -0.535798219  -1.270228888   2.876616970
  B    0.600351093   0.335849797   1.282195991
  H   -1.998089031   0.470893944   1.574411908
  H   -0.384114891  -2.006813864   0.234710346
  H    0.194005333   1.189417564   3.862899813
  H   -1.187983528  -1.953483723   3.580601282
  H    0.998112967   1.136886481   0.517020392
  H    0.278375708  -2.062275086   2.164396193
  H    1.133469428  -0.850448914   0.955630729
  H    0.502910085  -0.809821411   3.589813561
  H    1.361248021   0.399532532   2.385550700
