16
charge=0 charge_a=0 charge_b=0 selection_a=1-2 selection_b=3-16 scaling=1.05 benchmark_Eint=-1.952 benchmark_unit=kcal/mol group=Halogens
 Br    1.131235425  -0.599705547  -2.035621320
 Br   -0.976398586   0.309019962  -1.773729524
  B   -0.992173340  -0.054536048   2.531848095
  B   -0.154134752  -1.341294519   1.832883806
  B    0.146125721   0.319179408   3.720928541
  B   -0.572000095  -1.314111276   3.574156834
  B    0.564149217   0.291967409   1.979735855
  H   -2.034290907   0.427011556   2.271951772
  H   -0.420316767  -2.050696252   0.932250210
  H    0.157803457   1.145535176   4.560439677
  H   -1.224185404  -1.997366111   4.278141146
  H    0.961911091   1.093004093   1.214560256
  H    0.242173832  -2.106157474   2.861936057
  H    1.097267552  -0.894331302   1.653170593
  H    0.466708209  -0.853703799   4.287353425
  H    1.325046145   0.355650144   3.083090564
