17
charge=0 charge_a=0 charge_b=0 selection_a=1-5 selection_b=6-17 scaling=0.85 benchmark_Eint=0.836 benchmark_unit=kcal/mol group=Halogens
  C   -0.072885591   0.647631607  -2.277321283
 Br    1.409205735  -0.591354439  -2.076625503
 Br   -1.752329385  -0.128775694  -1.686820830
 Br    0.282853837   2.350012692  -1.412854092
  H   -0.173683251   0.846950138  -3.331484155
  B    1.399688429  -0.901225450   1.031438663
  H    2.320250729  -1.621461664   0.805780496
  N    1.587554820   0.490335252   1.281376502
  H    2.520954754   0.861730296   1.253005527
  B    0.506345949   1.382983758   1.543006139
  H    0.691754895   2.542497631   1.738506548
  N   -0.806253084   0.825474058   1.564119054
  H   -1.584936484   1.436655922   1.737575187
  B   -1.064795467  -0.556280235   1.322992764
  H   -2.172194169  -0.992682001   1.337709262
  N    0.061448533  -1.393228072   1.067422836
  H   -0.096586857  -2.368955675   0.885871662
