16
charge=0 charge_a=0 charge_b=0 selection_a=1-2 selection_b=3-16 scaling=0.90 benchmark_Eint=-1.399 benchmark_unit=kcal/mol group=Halogens
 Br    1.131235425  -0.599705547  -2.035621320
 Br   -0.976398586   0.309019962  -1.773729524
  B   -0.965021933  -0.021624257   2.008693197
  B   -0.126983345  -1.308382728   1.309728908
  B    0.173277128   0.352091199   3.197773643
  B   -0.544848688  -1.281199485   3.051001936
  B    0.591300624   0.324879200   1.456580957
  H   -2.007139500   0.459923347   1.748796874
  H   -0.393165360  -2.017784461   0.409095312
  H    0.184954864   1.178446967   4.037284779
  H   -1.197033997  -1.964454320   3.754986248
  H    0.989062498   1.125915884   0.691405358
  H    0.269325239  -2.073245683   2.338781159
  H    1.124418959  -0.861419511   1.130015695
  H    0.493859616  -0.820792008   3.764198527
  H    1.352197552   0.388561935   2.559935666
