17
charge=0 charge_a=0 charge_b=0 selection_a=1-5 selection_b=6-17 scaling=2.00 benchmark_Eint=-0.089 benchmark_unit=kcal/mol group=Halogens
  C   -0.072885591   0.647631607  -2.277321283
 Br    1.409205735  -0.591354439  -2.076625503
 Br   -1.752329385  -0.128775694  -1.686820830
 Br    0.282853837   2.350012692  -1.412854092
  H   -0.173683251   0.846950138  -3.331484155
  B    1.808796062  -1.675047622   5.150763084
  H    2.729358362  -2.395283836   4.925104917
  N    1.996662453  -0.283486920   5.400700923
  H    2.930062387   0.087908124   5.372329948
  B    0.915453582   0.609161586   5.662330560
  H    1.100862528   1.768675459   5.857830969
  N   -0.397145451   0.051651886   5.683443475
  H   -1.175828851   0.662833750   5.856899608
  B   -0.655687834  -1.330102407   5.442317185
  H   -1.763086536  -1.766504173   5.457033683
  N    0.470556166  -2.167050244   5.186747257
  H    0.312520776  -3.142777847   5.005196083
