16
charge=0 charge_a=0 charge_b=0 selection_a=1-2 selection_b=3-16 scaling=1.50 benchmark_Eint=-0.407 benchmark_unit=kcal/mol group=Halogens
 Br    1.131235425  -0.599705547  -2.035621320
 Br   -0.976398586   0.309019962  -1.773729524
  B   -1.073627561  -0.153271420   4.101312789
  B   -0.235588973  -1.440029891   3.402348500
  B    0.064671500   0.220444036   5.290393235
  B   -0.653454316  -1.412846648   5.143621528
  B    0.482694996   0.193232037   3.549200549
  H   -2.115745128   0.328276184   3.841416466
  H   -0.501770988  -2.149431624   2.501714904
  H    0.076349236   1.046799804   6.129904371
  H   -1.305639625  -2.096101483   5.847605840
  H    0.880456870   0.994268721   2.784024950
  H    0.160719611  -2.204892846   4.431400751
  H    1.015813331  -0.993066674   3.222635287
  H    0.385253988  -0.952439171   5.856818119
  H    1.243591924   0.256914772   4.652555258
