17
charge=0 charge_a=0 charge_b=0 selection_a=1-5 selection_b=6-17 scaling=0.85 benchmark_Eint=-1.005 benchmark_unit=kcal/mol group=Halogens
  C   -0.243368043  -0.060701239   0.945820169
  I    0.248706101  -1.041608551  -0.905638967
  I    0.975461439  -0.710668511   2.592506855
  I   -0.308003355   2.080576897   0.738449603
  H   -1.250048708  -0.365501626   1.183898735
  B    0.811083017   3.359864862  -5.211586194
  H    0.963234984   3.929056905  -6.246238029
  N    0.518132261   4.068415146  -4.008250519
  H    0.441215052   5.069843592  -4.046984397
  B    0.330466773   3.415807747  -2.752252085
  H    0.086908665   4.033472349  -1.763357681
  N    0.446606830   1.996388527  -2.733164286
  H    0.317978128   1.515264820  -1.858595419
  B    0.736972163   1.227478472  -3.896375322
  H    0.828520154   0.040760561  -3.850961966
  N    0.913691455   1.939588304  -5.121238621
  H    1.119673567   1.418717970  -5.955827690
