17
charge=0 charge_a=0 charge_b=0 selection_a=1-5 selection_b=6-17 scaling=0.80 benchmark_Eint=1.212 benchmark_unit=kcal/mol group=Halogens
  C   -0.243368043  -0.060701239   0.945820169
  I    0.248706101  -1.041608551  -0.905638967
  I    0.975461439  -0.710668511   2.592506855
  I   -0.308003355   2.080576897   0.738449603
  H   -1.250048708  -0.365501626   1.183898735
  B    0.801345597   3.286729193  -5.075648047
  H    0.953497564   3.855921236  -6.110299882
  N    0.508394841   3.995279477  -3.872312372
  H    0.431477632   4.996707923  -3.911046250
  B    0.320729353   3.342672078  -2.616313938
  H    0.077171245   3.960336680  -1.627419534
  N    0.436869410   1.923252858  -2.597226139
  H    0.308240708   1.442129151  -1.722657272
  B    0.727234743   1.154342803  -3.760437175
  H    0.818782734  -0.032375108  -3.715023819
  N    0.903954035   1.866452635  -4.985300474
  H    1.109936147   1.345582301  -5.819889543
