10
charge=0 charge_a=0 charge_b=0 selection_a=1-2 selection_b=3-10 scaling=2.00 benchmark_Eint=-0.084 benchmark_unit=kcal/mol group=Halogens
  I    0.620596484  -1.585697390  -2.017175927
  I   -0.407666179   0.893219293  -2.134045810
  B    0.630083549  -0.069808660   5.207186173
  H    1.417903455  -0.533190886   5.960416820
  H    0.904883890   0.839413189   4.500772738
  H   -0.471119656   0.211438385   5.860798715
  B   -0.983057322  -0.751752126   5.133315742
  H   -1.769944199  -0.291348383   4.378302875
  H   -1.256259515  -1.663654800   5.837957480
  H    0.116375233  -1.028576728   4.478469449
