10
charge=0 charge_a=0 charge_b=0 selection_a=1-2 selection_b=3-10 scaling=0.85 benchmark_Eint=0.297 benchmark_unit=kcal/mol group=Halogens
  I    0.620596484  -1.585697390  -2.017175927
  I   -0.407666179   0.893219293  -2.134045810
  B    0.777542361  -0.036146536   1.430768495
  H    1.565362267  -0.499528762   2.183999142
  H    1.052342702   0.873075313   0.724355060
  H   -0.323660844   0.245100509   2.084381037
  B   -0.835598510  -0.718090002   1.356898064
  H   -1.622485387  -0.257686259   0.601885197
  H   -1.108800703  -1.629992676   2.061539802
  H    0.263834045  -0.994914604   0.702051771
