17
charge=0 charge_a=0 charge_b=0 selection_a=1-5 selection_b=6-17 scaling=1.05 benchmark_Eint=-2.889 benchmark_unit=kcal/mol group=Halogens
  C   -0.243368043  -0.060701239   0.945820169
  I    0.248706101  -1.041608551  -0.905638967
  I    0.975461439  -0.710668511   2.592506855
  I   -0.308003355   2.080576897   0.738449603
  H   -1.250048708  -0.365501626   1.183898735
  B    0.850032694   3.652407539  -5.755338783
  H    1.002184661   4.221599582  -6.789990618
  N    0.557081938   4.360957823  -4.552003108
  H    0.480164729   5.362386269  -4.590736986
  B    0.369416450   3.708350424  -3.296004674
  H    0.125858342   4.326015026  -2.307110270
  N    0.485556507   2.288931204  -3.276916875
  H    0.356927805   1.807807497  -2.402348008
  B    0.775921840   1.520021149  -4.440127911
  H    0.867469831   0.333303238  -4.394714555
  N    0.952641132   2.232130981  -5.664991210
  H    1.158623244   1.711260647  -6.499580279
