10
charge=0 charge_a=0 charge_b=0 selection_a=1-2 selection_b=3-10 scaling=1.50 benchmark_Eint=-0.407 benchmark_unit=kcal/mol group=Halogens
  I    0.620596484  -1.585697390  -2.017175927
  I   -0.407666179   0.893219293  -2.134045810
  B    0.694196076  -0.055172954   3.565265443
  H    1.482015982  -0.518555180   4.318496090
  H    0.968996417   0.854048895   2.858852008
  H   -0.407007129   0.226074091   4.218877985
  B   -0.918944795  -0.737116420   3.491395012
  H   -1.705831672  -0.276712677   2.736382145
  H   -1.192146988  -1.649019094   4.196036750
  H    0.180487760  -1.013941022   2.836548719
