10
charge=0 charge_a=0 charge_b=0 selection_a=1-2 selection_b=3-10 scaling=0.90 benchmark_Eint=-0.934 benchmark_unit=kcal/mol group=Halogens
  I    0.620596484  -1.585697390  -2.017175927
  I   -0.407666179   0.893219293  -2.134045810
  B    0.771131108  -0.037610107   1.594960568
  H    1.558951014  -0.500992333   2.348191215
  H    1.045931449   0.871611742   0.888547133
  H   -0.330072097   0.243636938   2.248573110
  B   -0.842009763  -0.719553573   1.521090137
  H   -1.628896640  -0.259149830   0.766077270
  H   -1.115211956  -1.631456247   2.225731875
  H    0.257422792  -0.996378175   0.866243844
