17
charge=0 charge_a=0 charge_b=0 selection_a=1-5 selection_b=6-17 scaling=1.25 benchmark_Eint=-1.881 benchmark_unit=kcal/mol group=Halogens
  C   -0.243368043  -0.060701239   0.945820169
  I    0.248706101  -1.041608551  -0.905638967
  I    0.975461439  -0.710668511   2.592506855
  I   -0.308003355   2.080576897   0.738449603
  H   -1.250048708  -0.365501626   1.183898735
  B    0.888982372   3.944950216  -6.299091372
  H    1.041134339   4.514142259  -7.333743207
  N    0.596031616   4.653500500  -5.095755697
  H    0.519114407   5.654928946  -5.134489575
  B    0.408366128   4.000893101  -3.839757263
  H    0.164808020   4.618557703  -2.850862859
  N    0.524506185   2.581473881  -3.820669464
  H    0.395877483   2.100350174  -2.946100597
  B    0.814871518   1.812563826  -4.983880500
  H    0.906419509   0.625845915  -4.938467144
  N    0.991590810   2.524673658  -6.208743799
  H    1.197572922   2.003803324  -7.043332868
