17
charge=0 charge_a=0 charge_b=0 selection_a=1-5 selection_b=6-17 scaling=1.50 benchmark_Eint=-0.889 benchmark_unit=kcal/mol group=Halogens
  C   -0.243368043  -0.060701239   0.945820169
  I    0.248706101  -1.041608551  -0.905638967
  I    0.975461439  -0.710668511   2.592506855
  I   -0.308003355   2.080576897   0.738449603
  H   -1.250048708  -0.365501626   1.183898735
  B    0.937669469   4.310628562  -6.978782108
  H    1.089821436   4.879820605  -8.013433943
  N    0.644718713   5.019178846  -5.775446433
  H    0.567801504   6.020607292  -5.814180311
  B    0.457053225   4.366571447  -4.519447999
  H    0.213495117   4.984236049  -3.530553595
  N    0.573193282   2.947152227  -4.500360200
  H    0.444564580   2.466028520  -3.625791333
  B    0.863558615   2.178242172  -5.663571236
  H    0.955106606   0.991524261  -5.618157880
  N    1.040277907   2.890352004  -6.888434535
  H    1.246260019   2.369481670  -7.723023604
