9
charge=0 charge_a=0 charge_b=0 selection_a=1-4 selection_b=5-9 scaling=0.90 benchmark_Eint=-0.740 benchmark_unit=kcal/mol group=Halogens
  P   -0.165726285   0.244059326   1.578916511
  P    1.434883568   0.611372017   0.113981272
  P    0.588524919  -1.407882027   0.335877827
  P    1.853781233  -0.563921506   1.929951360
  C   -1.874994996   0.630383949  -1.876316547
  F   -0.757744698   1.340868314  -2.082010839
  F   -1.561645727  -0.672031106  -1.906734918
  F   -2.347341798   0.925086156  -0.657533254
  H   -2.617564886   0.860718267  -2.637728107
