16
charge=0 charge_a=0 charge_b=0 selection_a=1-11 selection_b=12-16 scaling=1.10 benchmark_Eint=-1.446 benchmark_unit=kcal/mol group=Halogens
  C   -2.481155281   0.932393571  -0.420384133
  C   -1.381433153   1.692095320  -0.803918690
  C   -0.421420907   1.240997271  -1.696470669
  P   -0.422751428  -0.309050936  -2.472397313
  C   -1.872425622  -0.985563444  -1.805113763
  C   -2.712379122  -0.351063441  -0.903066328
  H   -3.183982329   1.356219173   0.283206930
  H   -1.272042261   2.682302492  -0.379058163
  H    0.402652615   1.902473340  -1.933539859
  H   -2.132913206  -1.987080582  -2.124444430
  H   -3.592099694  -0.877016919  -0.552816289
  C    1.367271279  -0.280939613   1.786380295
  F    1.177315730   1.025745294   1.913333559
  F    0.203605990  -0.883070833   1.601642146
  F    1.935700329  -0.749579876   2.891313877
  F    2.160502729  -0.514269704   0.751884343
