9
charge=0 charge_a=0 charge_b=0 selection_a=1-4 selection_b=5-9 scaling=0.90 benchmark_Eint=-0.755 benchmark_unit=kcal/mol group=Halogens
  P   -0.185163194   0.563321918  -2.125131237
  P   -1.921690527   0.442039876  -1.088767815
  H    0.463954821   1.373510173  -1.151908944
  H   -2.569185773  -0.368945098  -2.064839684
  C    0.894037180  -0.408894451   1.589439643
  F    0.435872468   0.848946575   1.522504626
  F   -0.147424404  -1.246661542   1.516078071
  F    1.690956186  -0.626385256   0.533271812
  H    1.442794256  -0.563516062   2.516455700
