9
charge=0 charge_a=0 charge_b=0 selection_a=1-4 selection_b=5-9 scaling=0.80 benchmark_Eint=0.799 benchmark_unit=kcal/mol group=Halogens
  P   -0.185163194   0.563321918  -2.125131237
  P   -1.921690527   0.442039876  -1.088767815
  H    0.463954821   1.373510173  -1.151908944
  H   -2.569185773  -0.368945098  -2.064839684
  C    0.743113756  -0.335443559   1.342688258
  F    0.284949044   0.922397467   1.275753241
  F   -0.298347828  -1.173210650   1.269326686
  F    1.540032762  -0.552934364   0.286520427
  H    1.291870832  -0.490065170   2.269704315
