9
charge=0 charge_a=0 charge_b=0 selection_a=1-4 selection_b=5-9 scaling=0.85 benchmark_Eint=0.234 benchmark_unit=kcal/mol group=Halogens
  P    1.035157731   0.014327683  -1.782657196
  P   -0.983189910  -0.149428195  -1.775617740
  H    1.052134352   1.185466499  -0.974874681
  H   -0.994621082  -1.323235483  -2.582690090
  C    0.037298160  -0.409900193   1.929128890
 Cl   -0.530539005   1.187292881   1.392487855
 Cl   -1.048519254  -1.670587542   1.303733664
 Cl    0.048113957  -0.466221116   3.707296684
 Cl    1.685846113  -0.691642435   1.320268413
