10
charge=0 charge_a=0 charge_b=0 selection_a=1-4 selection_b=5-10 scaling=1.50 benchmark_Eint=-0.535 benchmark_unit=kcal/mol group=Halogens
  P   -1.900393400  -2.275173031   1.453586174
  H   -1.111456328  -1.513004697   2.349726011
  H   -2.131822652  -3.308724810   2.395701876
  H   -0.779894776  -2.925937770   0.881265894
 Cl   -0.369530712   0.626314066  -2.871215480
  C    0.250972036   1.311064204  -1.425852000
 Cl   -0.714255304   2.542616961  -0.722075358
  C    1.408698993   0.911443630  -0.883551197
 Cl    2.372947901  -0.324961701  -1.583133649
 Cl    2.028917372   1.592860978   0.565219489
