9
charge=0 charge_a=0 charge_b=0 selection_a=1-4 selection_b=5-9 scaling=1.05 benchmark_Eint=-2.205 benchmark_unit=kcal/mol group=Halogens
  P    1.035157731   0.014327683  -1.782657196
  P   -0.983189910  -0.149428195  -1.775617740
  H    1.052134352   1.185466499  -0.974874681
  H   -0.994621082  -1.323235483  -2.582690090
  C    0.039495595  -0.469934088   2.579094327
 Cl   -0.528341570   1.127258986   2.042453292
 Cl   -1.046321819  -1.730621437   1.953699101
 Cl    0.050311392  -0.526255011   4.357262121
 Cl    1.688043548  -0.751676330   1.970233850
