10
charge=0 charge_a=0 charge_b=0 selection_a=1-4 selection_b=5-10 scaling=1.00 benchmark_Eint=-2.569 benchmark_unit=kcal/mol group=Halogens
  P   -1.900393400  -2.275173031   1.453586174
  H   -1.111456328  -1.513004697   2.349726011
  H   -2.131822652  -3.308724810   2.395701876
  H   -0.779894776  -2.925937770   0.881265894
 Cl   -1.215357898  -0.450458173  -2.036754317
  C   -0.594855150   0.234291965  -0.591390837
 Cl   -1.560082490   1.465844722   0.112385805
  C    0.562871807  -0.165328609  -0.049090034
 Cl    1.527120715  -1.401733940  -0.748672486
 Cl    1.183090186   0.516088739   1.399680652
