9
charge=0 charge_a=0 charge_b=0 selection_a=1-4 selection_b=5-9 scaling=2.00 benchmark_Eint=-0.122 benchmark_unit=kcal/mol group=Halogens
  P    1.035157731   0.014327683  -1.782657196
  P   -0.983189910  -0.149428195  -1.775617740
  H    1.052134352   1.185466499  -0.974874681
  H   -0.994621082  -1.323235483  -2.582690090
  C    0.049933406  -0.755095086   5.666430157
 Cl   -0.517903759   0.842097988   5.129789122
 Cl   -1.035884008  -2.015782435   5.041034931
 Cl    0.060749203  -0.811416009   7.444597951
 Cl    1.698481359  -1.036837328   5.057569680
