10
charge=0 charge_a=0 charge_b=0 selection_a=1-4 selection_b=5-10 scaling=0.85 benchmark_Eint=-0.103 benchmark_unit=kcal/mol group=Halogens
  P   -1.900393400  -2.275173031   1.453586174
  H   -1.111456328  -1.513004697   2.349726011
  H   -2.131822652  -3.308724810   2.395701876
  H   -0.779894776  -2.925937770   0.881265894
 Cl   -1.469106054  -0.773489845  -1.786415968
  C   -0.848603306  -0.088739707  -0.341052488
 Cl   -1.813830646   1.142813050   0.362724154
  C    0.309123651  -0.488360281   0.201248315
 Cl    1.273372559  -1.724765612  -0.498334137
 Cl    0.929342030   0.193057067   1.650019001
