10
charge=0 charge_a=0 charge_b=0 selection_a=1-4 selection_b=5-10 scaling=0.80 benchmark_Eint=3.097 benchmark_unit=kcal/mol group=Halogens
  P   -1.900393400  -2.275173031   1.453586174
  H   -1.111456328  -1.513004697   2.349726011
  H   -2.131822652  -3.308724810   2.395701876
  H   -0.779894776  -2.925937770   0.881265894
 Cl   -1.553688772  -0.881167069  -1.702969852
  C   -0.933186024  -0.196416931  -0.257606372
 Cl   -1.898413364   1.035135826   0.446170270
  C    0.224540933  -0.596037505   0.284694431
 Cl    1.188789841  -1.832442836  -0.414888021
 Cl    0.844759312   0.085379843   1.733465117
