10
charge=0 charge_a=0 charge_b=0 selection_a=1-4 selection_b=5-10 scaling=1.10 benchmark_Eint=-2.192 benchmark_unit=kcal/mol group=Halogens
  P   -1.900393400  -2.275173031   1.453586174
  H   -1.111456328  -1.513004697   2.349726011
  H   -2.131822652  -3.308724810   2.395701876
  H   -0.779894776  -2.925937770   0.881265894
 Cl   -1.046192461  -0.235103725  -2.203646550
  C   -0.425689713   0.449646413  -0.758283070
 Cl   -1.390917053   1.681199170  -0.054506428
  C    0.732037244   0.050025839  -0.215982267
 Cl    1.696286152  -1.186379492  -0.915564719
 Cl    1.352255623   0.731443187   1.232788419
