16
charge=0 charge_a=0 charge_b=0 selection_a=1-11 selection_b=12-16 scaling=2.00 benchmark_Eint=-0.110 benchmark_unit=kcal/mol group=Halogens
  C   -1.792349279   2.277509732  -1.380872517
  C   -0.505162430   2.647374332  -1.754575248
  C    0.455995634   1.737623925  -2.168452971
  P    0.230638110   0.023115769  -2.280182309
  C   -1.418872980  -0.104774077  -1.765503662
  C   -2.225939241   0.956537348  -1.389072298
  H   -2.482778555   3.047763349  -1.066810258
  H   -0.245605482   3.698510445  -1.718920154
  H    1.432611352   2.118573677  -2.440689864
  H   -1.839633076  -1.101550347  -1.725808578
  H   -3.241255374   0.750721541  -1.074499856
  C   -0.666655622  -2.136012696   5.208350071
 Cl   -0.026619300  -0.563443884   4.703400548
 Cl   -2.440208945  -2.182302194   5.080033674
 Cl    0.074395208  -3.462142003   4.291155684
  H   -0.415366857  -2.277944682   6.248624656
