10
charge=0 charge_a=0 charge_b=0 selection_a=1-4 selection_b=5-10 scaling=1.05 benchmark_Eint=-2.444 benchmark_unit=kcal/mol group=Halogens
  P   -1.900393400  -2.275173031   1.453586174
  H   -1.111456328  -1.513004697   2.349726011
  H   -2.131822652  -3.308724810   2.395701876
  H   -0.779894776  -2.925937770   0.881265894
 Cl   -1.130775179  -0.342780949  -2.120200433
  C   -0.510272431   0.341969189  -0.674836953
 Cl   -1.475499771   1.573521946   0.028939689
  C    0.647454526  -0.057651385  -0.132536150
 Cl    1.611703434  -1.294056716  -0.832118602
 Cl    1.267672905   0.623765963   1.316234536
