10
charge=0 charge_a=0 charge_b=0 selection_a=1-4 selection_b=5-10 scaling=0.90 benchmark_Eint=-1.730 benchmark_unit=kcal/mol group=Halogens
  P   -1.900393400  -2.275173031   1.453586174
  H   -1.111456328  -1.513004697   2.349726011
  H   -2.131822652  -3.308724810   2.395701876
  H   -0.779894776  -2.925937770   0.881265894
 Cl   -1.384523335  -0.665812621  -1.869862084
  C   -0.764020587   0.018937517  -0.424498604
 Cl   -1.729247927   1.250490274   0.279278038
  C    0.393706370  -0.380683057   0.117802199
 Cl    1.357955278  -1.617088388  -0.581780253
 Cl    1.013924749   0.300734291   1.566572885
