9
charge=0 charge_a=0 charge_b=0 selection_a=1-4 selection_b=5-9 scaling=0.90 benchmark_Eint=-1.236 benchmark_unit=kcal/mol group=Halogens
  P    1.035157731   0.014327683  -1.782657196
  P   -0.983189910  -0.149428195  -1.775617740
  H    1.052134352   1.185466499  -0.974874681
  H   -0.994621082  -1.323235483  -2.582690090
  C    0.037847519  -0.424908667   2.091620249
 Cl   -0.529989646   1.172284407   1.554979214
 Cl   -1.047969895  -1.685596016   1.466225023
 Cl    0.048663316  -0.481229590   3.869788043
 Cl    1.686395472  -0.706650909   1.482759772
