6
charge=0 charge_a=0 charge_b=0 selection_a=1-4 selection_b=5-6 scaling=0.85 benchmark_Eint=1.732 benchmark_unit=kcal/mol group=Halogens
  P    0.936544590  -0.245483620  -1.943497321
  P   -1.003816117   0.299366988  -1.731344242
  H    1.435940708   1.080665019  -1.801917332
  H   -1.502963341  -1.027370228  -1.868117418
 Br   -0.952599115  -0.286127943   1.405503755
 Br    1.333909810  -0.512730386   1.214333142
