6
charge=0 charge_a=0 charge_b=0 selection_a=1-4 selection_b=5-6 scaling=2.00 benchmark_Eint=-0.057 benchmark_unit=kcal/mol group=Halogens
  P    0.936544590  -0.245483620  -1.943497321
  P   -1.003816117   0.299366988  -1.731344242
  H    1.435940708   1.080665019  -1.801917332
  H   -1.502963341  -1.027370228  -1.868117418
 Br   -0.648560071  -0.864094814   5.671868601
 Br    1.637948854  -1.090697257   5.480697988
