6
charge=0 charge_a=0 charge_b=0 selection_a=1-4 selection_b=5-6 scaling=0.90 benchmark_Eint=-1.396 benchmark_unit=kcal/mol group=Halogens
  P    0.933651146  -1.769510169  -2.021621916
  P    0.298773288   0.324234611  -2.238785256
  P   -1.152365144  -1.204618875  -1.617327275
  P   -0.388653658  -1.190747535  -3.685412828
 Br    0.896673674  -0.419174679   1.248603642
 Br   -0.771209189   1.178951198   1.208490557
