6
charge=0 charge_a=0 charge_b=0 selection_a=1-4 selection_b=5-6 scaling=1.10 benchmark_Eint=-1.694 benchmark_unit=kcal/mol group=Halogens
  P    0.936544590  -0.245483620  -1.943497321
  P   -1.003816117   0.299366988  -1.731344242
  H    1.435940708   1.080665019  -1.801917332
  H   -1.502963341  -1.027370228  -1.868117418
 Br   -0.886503670  -0.411772915   2.332974373
 Br    1.400005255  -0.638375358   2.141803760
