6
charge=0 charge_a=0 charge_b=0 selection_a=1-4 selection_b=5-6 scaling=1.10 benchmark_Eint=-2.202 benchmark_unit=kcal/mol group=Halogens
  P    0.933651146  -1.769510169  -2.021621916
  P    0.298773288   0.324234611  -2.238785256
  P   -1.152365144  -1.204618875  -1.617327275
  P   -0.388653658  -1.190747535  -3.685412828
 Br    0.925147530  -0.146397105   1.985347830
 Br   -0.742735333   1.451728772   1.945234745
