16
charge=0 charge_a=0 charge_b=0 selection_a=1-11 selection_b=12-16 scaling=1.10 benchmark_Eint=-3.225 benchmark_unit=kcal/mol group=Halogens
  C   -1.783855659   2.297259142  -1.397371549
  C   -0.498118147   2.652910336  -1.789537166
  C    0.463633086   1.727786559  -2.166432614
  P    0.242399290   0.009477174  -2.201305503
  C   -1.405726854  -0.098898695  -1.677223173
  C   -2.214581241   0.976331489  -1.346982799
  H   -2.475168181   3.079031862  -1.115402311
  H   -0.240433162   3.705074492  -1.800126928
  H    1.438742868   2.098464105  -2.457593786
  H   -1.823791193  -1.093760968  -1.590479373
  H   -3.228229974   0.782000554  -1.020409834
  C   -0.641436423  -0.906284549   2.481075078
 Br    0.018438638   0.857438840   2.019210374
 Br   -2.574831491  -1.033816035   2.293188792
 Br    0.271129163  -2.309899173   1.497257179
  H   -0.424053650  -1.063929815   3.524553278
