11
charge=0 charge_a=0 charge_b=0 selection_a=1-6 selection_b=7-11 scaling=1.50 benchmark_Eint=-1.234 benchmark_unit=kcal/mol group=Halogens
  P   -2.492389858  -0.432793542   1.977002480
  P   -0.767179127  -1.054616971   0.683623174
  H   -3.452685100  -1.054988725   1.137579570
  H   -2.653942589   0.824472439   1.342188749
  H   -0.827775993  -2.412518473   1.090007627
  H    0.230204889  -0.732691336   1.635114796
  C    1.933886440   2.254432122  -2.055504628
  I    1.082110345   3.527613998  -0.553907919
  I    3.803581034   1.348920132  -1.534550697
  H    2.096362295   2.857201331  -2.936275239
  H    1.229496184   1.451557291  -2.216272852
