11
charge=0 charge_a=0 charge_b=0 selection_a=1-6 selection_b=7-11 scaling=1.05 benchmark_Eint=-3.964 benchmark_unit=kcal/mol group=Halogens
  P   -2.492389858  -0.432793542   1.977002480
  P   -0.767179127  -1.054616971   0.683623174
  H   -3.452685100  -1.054988725   1.137579570
  H   -2.653942589   0.824472439   1.342188749
  H   -0.827775993  -2.412518473   1.090007627
  H    0.230204889  -0.732691336   1.635114796
  C    0.983021151   1.507766299  -1.484612660
  I    0.131245056   2.780948175   0.016984049
  I    2.852715745   0.602254309  -0.963658729
  H    1.145497006   2.110535508  -2.365383271
  H    0.278630895   0.704891468  -1.645380884
