16
charge=0 charge_a=0 charge_b=0 selection_a=1-11 selection_b=12-16 scaling=0.80 benchmark_Eint=6.272 benchmark_unit=kcal/mol group=Halogens
  C   -1.785426152   2.305470037  -1.443460115
  C   -0.485318728   2.646689618  -1.800401007
  C    0.487679912   1.708389330  -2.110917908
  P    0.265893120  -0.010164560  -2.092117431
  C   -1.400483161  -0.099096898  -1.623780610
  C   -2.219792098   0.987262527  -1.363060353
  H   -2.485142395   3.096837685  -1.214045356
  H   -0.225530678   3.697723164  -1.837952694
  H    1.473165898   2.068484449  -2.379562398
  H   -1.822360179  -1.090055476  -1.514070901
  H   -3.244593391   0.804435992  -1.066342444
  C   -0.722574436  -0.536202342   1.772462674
  I   -0.044566957   1.444657519   1.208611695
  I   -2.851201648  -0.725341349   1.359220578
  I   -0.380057976  -0.848779454   3.895694465
  I    0.365997179  -2.034587492   0.638732115
