6
charge=0 charge_a=0 charge_b=0 selection_a=1-4 selection_b=5-6 scaling=1.05 benchmark_Eint=-2.512 benchmark_unit=kcal/mol group=Halogens
  P    0.962038071  -0.222929474  -1.931346836
  P   -0.992895169   0.256998193  -1.678627444
  H    1.416276194   1.123242442  -1.835245258
  H   -1.446653469  -1.089670473  -1.769433169
  I    1.709508308  -0.525100632   1.966574551
  I   -0.939858124  -0.279701364   2.263030309
