6
charge=0 charge_a=0 charge_b=0 selection_a=1-4 selection_b=5-6 scaling=0.85 benchmark_Eint=2.541 benchmark_unit=kcal/mol group=Halogens
  P    0.962038071  -0.222929474  -1.931346836
  P   -0.992895169   0.256998193  -1.678627444
  H    1.416276194   1.123242442  -1.835245258
  H   -1.446653469  -1.089670473  -1.769433169
  I    1.632946147  -0.444869295   1.216782891
  I   -1.016420285  -0.199470027   1.513238649
