24
charge=0 charge_a=0 charge_b=0 selection_a=1-12 selection_b=13-24 scaling=1.50 benchmark_Eint=-1.805 benchmark_unit=kcal/mol group=Halogens
  S    0.929875222  -1.318579054  -1.563638976
  C   -0.490926267  -1.501253993  -2.676469039
  S   -1.853859897  -0.326328866  -2.447522974
  C   -0.985967255   1.202919667  -2.893240210
  S    0.375857380   1.706127926  -1.805823709
  C    1.502589723   0.315922821  -2.102826176
  H   -0.903299661  -2.487989195  -2.485359865
  H   -0.150002464  -1.465764012  -3.710431020
  H   -1.724586866   1.998127751  -2.845258320
  H   -0.625097240   1.130641069  -3.918476976
  H    2.403694971   0.526518436  -1.533707215
  H    1.764498750   0.279262720  -3.159534578
  F   -3.683500729  -1.669433852   2.471602708
  C   -2.734314316  -0.785509873   2.775905394
  C   -1.482262803  -1.223273644   3.172273403
  F   -1.226630645  -2.528433092   3.249472162
  C   -0.484585808  -0.303565379   3.458058082
  F    0.729166472  -0.725612417   3.809475990
  C   -0.740619680   1.052336927   3.346944593
  F    0.226608166   1.935070119   3.591752908
  C   -1.994770916   1.490807597   2.949771230
  F   -2.231731304   2.794651628   2.812964188
  C   -2.990823380   0.572694569   2.664592556
  F   -4.186329773   0.992988263   2.253687606
