21
charge=0 charge_a=0 charge_b=0 selection_a=1-9 selection_b=10-21 scaling=0.90 benchmark_Eint=-4.137 benchmark_unit=kcal/mol group=Halogens
  C   -3.269587739   0.430312573  -1.346580205
  S   -2.304405747  -1.101464501  -1.312556691
  C   -2.980263762  -1.847511331   0.192588408
  H   -2.928933795   1.007147938  -2.202848334
  H   -3.110308434   1.014835214  -0.442238737
  H   -4.330974736   0.219553656  -1.462136678
  H   -2.449228929  -2.782089418   0.355621465
  H   -4.041724543  -2.059383242   0.079733856
  H   -2.827061737  -1.200420134   1.054361450
  F    1.303189329  -2.239127532   0.622827662
  C    0.774268433  -1.040823104   0.385110895
  C    1.126680429  -0.340812797  -0.758655187
  F    1.996640352  -0.864937376  -1.617885073
  C    0.563174972   0.900323210  -1.012594469
  F    0.889029404   1.566739683  -2.117877596
  C   -0.351284007   1.441416298  -0.122406992
  F   -0.909699996   2.624155382  -0.376625069
  C   -0.703176638   0.741278769   1.020544641
  F   -1.605626532   1.248499350   1.861319529
  C   -0.140036640  -0.499033237   1.275058109
  F   -0.494938900  -1.180262510   2.363888388
