24
charge=0 charge_a=0 charge_b=0 selection_a=1-12 selection_b=13-24 scaling=0.95 benchmark_Eint=-6.695 benchmark_unit=kcal/mol group=Halogens
  S    0.929875222  -1.318579054  -1.563638976
  C   -0.490926267  -1.501253993  -2.676469039
  S   -1.853859897  -0.326328866  -2.447522974
  C   -0.985967255   1.202919667  -2.893240210
  S    0.375857380   1.706127926  -1.805823709
  C    1.502589723   0.315922821  -2.102826176
  H   -0.903299661  -2.487989195  -2.485359865
  H   -0.150002464  -1.465764012  -3.710431020
  H   -1.724586866   1.998127751  -2.845258320
  H   -0.625097240   1.130641069  -3.918476976
  H    2.403694971   0.526518436  -1.533707215
  H    1.764498750   0.279262720  -3.159534578
  F   -3.101030126  -1.712007556   0.598485922
  C   -2.151843713  -0.828083577   0.902788608
  C   -0.899792200  -1.265847348   1.299156617
  F   -0.644160042  -2.571006796   1.376355376
  C    0.097884795  -0.346139083   1.584941296
  F    1.311637075  -0.768186121   1.936359204
  C   -0.158149077   1.009763223   1.473827807
  F    0.809078769   1.892496415   1.718636122
  C   -1.412300313   1.448233893   1.076654444
  F   -1.649260701   2.752077924   0.939847402
  C   -2.408352777   0.530120865   0.791475770
  F   -3.603859170   0.950414559   0.380570820
