24
charge=0 charge_a=0 charge_b=0 selection_a=1-12 selection_b=13-24 scaling=0.80 benchmark_Eint=8.875 benchmark_unit=kcal/mol group=Halogens
  S    0.929875222  -1.318579054  -1.563638976
  C   -0.490926267  -1.501253993  -2.676469039
  S   -1.853859897  -0.326328866  -2.447522974
  C   -0.985967255   1.202919667  -2.893240210
  S    0.375857380   1.706127926  -1.805823709
  C    1.502589723   0.315922821  -2.102826176
  H   -0.903299661  -2.487989195  -2.485359865
  H   -0.150002464  -1.465764012  -3.710431020
  H   -1.724586866   1.998127751  -2.845258320
  H   -0.625097240   1.130641069  -3.918476976
  H    2.403694971   0.526518436  -1.533707215
  H    1.764498750   0.279262720  -3.159534578
  F   -2.942174507  -1.723618566   0.087635889
  C   -1.992988094  -0.839694587   0.391938575
  C   -0.740936581  -1.277458358   0.788306584
  F   -0.485304423  -2.582617806   0.865505343
  C    0.256740414  -0.357750093   1.074091263
  F    1.470492694  -0.779797131   1.425509171
  C    0.000706542   0.998152213   0.962977774
  F    0.967934388   1.880885405   1.207786089
  C   -1.253444694   1.436622883   0.565804411
  F   -1.490405082   2.740466914   0.428997369
  C   -2.249497158   0.518509855   0.280625737
  F   -3.445003551   0.938803549  -0.130279213
