14
charge=0 charge_a=0 charge_b=0 selection_a=1-9 selection_b=10-14 scaling=1.05 benchmark_Eint=-3.140 benchmark_unit=kcal/mol group=Halogens
  C   -1.077451610   1.406812777  -0.640388790
  C   -1.672495227   0.262644721  -0.041067910
  C   -1.295426068  -0.900858249  -0.646578692
  S   -0.212494881  -0.611933838  -1.948971545
  C   -0.260618966   1.085640889  -1.686031921
  H   -1.246802533   2.418681678  -0.307553877
  H   -2.343533220   0.303802041   0.802135228
  H   -1.594395890  -1.905157377  -0.402451872
  H    0.309708175   1.747816143  -2.313463885
  C    1.550043495  -0.211046228   1.575282231
  F    2.898724351  -0.149364900   1.775355803
  F    0.931284693   0.279704620   2.687962824
  H    1.263205337  -1.252928499   1.448494817
  H    1.289598896   0.413919694   0.724988279
