21
charge=0 charge_a=0 charge_b=0 selection_a=1-9 selection_b=10-21 scaling=2.00 benchmark_Eint=-0.443 benchmark_unit=kcal/mol group=Halogens
  C   -3.269587739   0.430312573  -1.346580205
  S   -2.304405747  -1.101464501  -1.312556691
  C   -2.980263762  -1.847511331   0.192588408
  H   -2.928933795   1.007147938  -2.202848334
  H   -3.110308434   1.014835214  -0.442238737
  H   -4.330974736   0.219553656  -1.462136678
  H   -2.449228929  -2.782089418   0.355621465
  H   -4.041724543  -2.059383242   0.079733856
  H   -2.827061737  -1.200420134   1.054361450
  F    4.177935274  -1.156215463   1.675441987
  C    3.649014378   0.042088965   1.437725220
  C    4.001426374   0.742099272   0.293959138
  F    4.871386297   0.217974693  -0.565270748
  C    3.437920917   1.983235279   0.040019856
  F    3.763775349   2.649651752  -1.065263271
  C    2.523461938   2.524328367   0.930207333
  F    1.965045949   3.707067451   0.675989256
  C    2.171569307   1.824190838   2.073158966
  F    1.269119413   2.331411419   2.913933854
  C    2.734709305   0.583878832   2.327672434
  F    2.379807045  -0.097350441   3.416502713
