24
charge=0 charge_a=0 charge_b=0 selection_a=1-12 selection_b=13-24 scaling=2.00 benchmark_Eint=-0.477 benchmark_unit=kcal/mol group=Halogens
  S    0.929875222  -1.318579054  -1.563638976
  C   -0.490926267  -1.501253993  -2.676469039
  S   -1.853859897  -0.326328866  -2.447522974
  C   -0.985967255   1.202919667  -2.893240210
  S    0.375857380   1.706127926  -1.805823709
  C    1.502589723   0.315922821  -2.102826176
  H   -0.903299661  -2.487989195  -2.485359865
  H   -0.150002464  -1.465764012  -3.710431020
  H   -1.724586866   1.998127751  -2.845258320
  H   -0.625097240   1.130641069  -3.918476976
  H    2.403694971   0.526518436  -1.533707215
  H    1.764498750   0.279262720  -3.159534578
  F   -4.213019459  -1.630730485   4.174436150
  C   -3.263833046  -0.746806506   4.478738836
  C   -2.011781533  -1.184570277   4.875106845
  F   -1.756149375  -2.489729725   4.952305604
  C   -1.014104538  -0.264862012   5.160891524
  F    0.199647742  -0.686909050   5.512309432
  C   -1.270138410   1.091040294   5.049778035
  F   -0.302910564   1.973773486   5.294586350
  C   -2.524289646   1.529510964   4.652604672
  F   -2.761250034   2.833354995   4.515797630
  C   -3.520342110   0.611397936   4.367425998
  F   -4.715848503   1.031691630   3.956521048
