21
charge=0 charge_a=0 charge_b=0 selection_a=1-9 selection_b=10-21 scaling=1.50 benchmark_Eint=-1.505 benchmark_unit=kcal/mol group=Halogens
  C   -3.269587739   0.430312573  -1.346580205
  S   -2.304405747  -1.101464501  -1.312556691
  C   -2.980263762  -1.847511331   0.192588408
  H   -2.928933795   1.007147938  -2.202848334
  H   -3.110308434   1.014835214  -0.442238737
  H   -4.330974736   0.219553656  -1.462136678
  H   -2.449228929  -2.782089418   0.355621465
  H   -4.041724543  -2.059383242   0.079733856
  H   -2.827061737  -1.200420134   1.054361450
  F    2.871232571  -1.648448221   1.196980930
  C    2.342311675  -0.450143793   0.959264163
  C    2.694723671   0.249866514  -0.184501919
  F    3.564683594  -0.274258065  -1.043731805
  C    2.131218214   1.491002521  -0.438441201
  F    2.457072646   2.157418994  -1.543724328
  C    1.216759235   2.032095609   0.451746276
  F    0.658343246   3.214834693   0.197528199
  C    0.864866604   1.331958080   1.594697909
  F   -0.037583290   1.839178661   2.435472797
  C    1.428006602   0.091646074   1.849211377
  F    1.073104342  -0.589583199   2.938041656
