14
charge=0 charge_a=0 charge_b=0 selection_a=1-12 selection_b=13-14 scaling=2.00 benchmark_Eint=-0.061 benchmark_unit=kcal/mol group=Halogens
  S    0.690041317  -1.601263006  -1.751683153
  C   -0.889132052  -1.376136686  -2.614267508
  S   -1.932061988  -0.009113191  -2.034682448
  C   -0.851180417   1.372329386  -2.499178580
  S    0.732713715   1.480840976  -1.622871087
  C    1.495215683  -0.048301767  -2.231976527
  H   -1.458621151  -2.286895340  -2.452178200
  H   -0.711502178  -1.268184661  -3.683856509
  H   -1.395451155   2.281656285  -2.260503870
  H   -0.675812510   1.349559667  -3.574335687
  H    2.493795203  -0.079929355  -1.805970910
  H    1.584307693  -0.004047352  -3.316874415
 Cl    2.612392320  -0.362433327   5.027504938
 Cl    0.609458837  -0.339719394   5.109057960
