14
charge=0 charge_a=0 charge_b=0 selection_a=1-8 selection_b=9-14 scaling=2.00 benchmark_Eint=-0.243 benchmark_unit=kcal/mol group=Halogens
  C   -0.860301052   1.937782891  -2.682592768
  S    0.394561002   2.333068240  -1.407159839
  C   -1.002857285   3.079942372  -0.486103180
  S   -2.215757269   2.834803468  -1.837172345
  H   -1.050705366   0.871558396  -2.763893248
  H   -0.618957742   2.356491173  -3.654348032
  H   -0.839750245   4.126717643  -0.250401388
  H   -1.256210962   2.521809398   0.410145391
 Cl    0.627775129  -2.164472430   3.989192593
  C    1.295824905  -2.995853164   2.641245963
 Cl    2.985935020  -3.273907786   2.716578325
  C    0.552222201  -3.366944048   1.594127534
 Cl   -1.131234276  -3.048792581   1.499812461
 Cl    1.223981303  -4.156660185   0.226102308
