14
charge=0 charge_a=0 charge_b=0 selection_a=1-8 selection_b=9-14 scaling=0.80 benchmark_Eint=2.940 benchmark_unit=kcal/mol group=Halogens
  C   -0.860301052   1.937782891  -2.682592768
  S    0.394561002   2.333068240  -1.407159839
  C   -1.002857285   3.079942372  -0.486103180
  S   -2.215757269   2.834803468  -1.837172345
  H   -1.050705366   0.871558396  -2.763893248
  H   -0.618957742   2.356491173  -3.654348032
  H   -0.839750245   4.126717643  -0.250401388
  H   -1.256210962   2.521809398   0.410145391
 Cl   -0.344344240   0.853290376   2.028171925
  C    0.323705536   0.021909642   0.680225295
 Cl    2.013815651  -0.256144980   0.755557657
  C   -0.419897168  -0.349181242  -0.366893134
 Cl   -2.103353645  -0.031029775  -0.461208207
 Cl    0.251861934  -1.138897379  -1.734918360
