14
charge=0 charge_a=0 charge_b=0 selection_a=1-8 selection_b=9-14 scaling=1.25 benchmark_Eint=-2.725 benchmark_unit=kcal/mol group=Halogens
  C   -0.860301052   1.937782891  -2.682592768
  S    0.394561002   2.333068240  -1.407159839
  C   -1.002857285   3.079942372  -0.486103180
  S   -2.215757269   2.834803468  -1.837172345
  H   -1.050705366   0.871558396  -2.763893248
  H   -0.618957742   2.356491173  -3.654348032
  H   -0.839750245   4.126717643  -0.250401388
  H   -1.256210962   2.521809398   0.410145391
 Cl    0.020200524  -0.278370676   2.763554676
  C    0.688250300  -1.109751410   1.415608046
 Cl    2.378360415  -1.387806032   1.490940408
  C   -0.055352404  -1.480842294   0.368489617
 Cl   -1.738808881  -1.162690827   0.274174544
 Cl    0.616406698  -2.270558431  -0.999535609
