14
charge=0 charge_a=0 charge_b=0 selection_a=1-9 selection_b=10-14 scaling=1.05 benchmark_Eint=-3.161 benchmark_unit=kcal/mol group=Halogens
  C   -0.769153561   1.552127648  -1.031381435
  C   -1.846195962   0.636965888  -1.185432846
  C   -1.544197017  -0.390173342  -2.031681904
  S    0.054868344  -0.249594774  -2.647686176
  C    0.326127288   1.199740648  -1.764092436
  H   -0.805247798   2.421208124  -0.394368210
  H   -2.794346387   0.733654184  -0.681063495
  H   -2.168547599  -1.215009472  -2.327219426
  H    1.272225630   1.707322351  -1.833130155
  C    0.320786898  -0.909774715   1.393449954
 Cl   -0.677723407   0.076389157   2.514136480
  H   -0.267420926  -1.109513012   0.506443802
  H    0.587729521  -1.829338840   1.901288660
  H    1.205072095  -0.339128663   1.137828231
