14
charge=0 charge_a=0 charge_b=0 selection_a=1-8 selection_b=9-14 scaling=0.95 benchmark_Eint=-4.529 benchmark_unit=kcal/mol group=Halogens
  C   -0.860301052   1.937782891  -2.682592768
  S    0.394561002   2.333068240  -1.407159839
  C   -1.002857285   3.079942372  -0.486103180
  S   -2.215757269   2.834803468  -1.837172345
  H   -1.050705366   0.871558396  -2.763893248
  H   -0.618957742   2.356491173  -3.654348032
  H   -0.839750245   4.126717643  -0.250401388
  H   -1.256210962   2.521809398   0.410145391
 Cl   -0.222829319   0.476070025   2.273299508
  C    0.445220457  -0.355310709   0.925352878
 Cl    2.135330572  -0.633365331   1.000685240
  C   -0.298382247  -0.726401593  -0.121765551
 Cl   -1.981838724  -0.408250126  -0.216080624
 Cl    0.373376855  -1.516117730  -1.489790777
