14
charge=0 charge_a=0 charge_b=0 selection_a=1-9 selection_b=10-14 scaling=1.10 benchmark_Eint=-2.938 benchmark_unit=kcal/mol group=Halogens
  C   -0.769153561   1.552127648  -1.031381435
  C   -1.846195962   0.636965888  -1.185432846
  C   -1.544197017  -0.390173342  -2.031681904
  S    0.054868344  -0.249594774  -2.647686176
  C    0.326127288   1.199740648  -1.764092436
  H   -0.805247798   2.421208124  -0.394368210
  H   -2.794346387   0.733654184  -0.681063495
  H   -2.168547599  -1.215009472  -2.327219426
  H    1.272225630   1.707322351  -1.833130155
  C    0.327918156  -0.930215757   1.531935112
 Cl   -0.670592149   0.055948115   2.652621638
  H   -0.260289668  -1.129954054   0.644928960
  H    0.594860779  -1.849779882   2.039773818
  H    1.212203353  -0.359569705   1.276313389
