14
charge=0 charge_a=0 charge_b=0 selection_a=1-8 selection_b=9-14 scaling=0.85 benchmark_Eint=-1.357 benchmark_unit=kcal/mol group=Halogens
  C   -0.860301052   1.937782891  -2.682592768
  S    0.394561002   2.333068240  -1.407159839
  C   -1.002857285   3.079942372  -0.486103180
  S   -2.215757269   2.834803468  -1.837172345
  H   -1.050705366   0.871558396  -2.763893248
  H   -0.618957742   2.356491173  -3.654348032
  H   -0.839750245   4.126717643  -0.250401388
  H   -1.256210962   2.521809398   0.410145391
 Cl   -0.303839266   0.727550259   2.109881119
  C    0.364210510  -0.103830475   0.761934489
 Cl    2.054320625  -0.381885097   0.837266851
  C   -0.379392194  -0.474921359  -0.285183940
 Cl   -2.062848671  -0.156769892  -0.379499013
 Cl    0.292366908  -1.264637496  -1.653209166
