5
charge=0 charge_a=0 charge_b=0 selection_a=1-3 selection_b=4-5 scaling=1.50 benchmark_Eint=-0.331 benchmark_unit=kcal/mol group=Halogens
  S    0.091150728  -0.082816602  -2.218869600
  C   -1.375073137   0.045257768  -1.728942331
  S   -2.836122931   0.170706678  -1.223175226
 Br    0.458940745   0.323040133   3.609455943
 Br    0.169996866  -1.950932038   3.325812275
