14
charge=0 charge_a=0 charge_b=0 selection_a=1-9 selection_b=10-14 scaling=0.85 benchmark_Eint=-2.025 benchmark_unit=kcal/mol group=Halogens
  C   -0.632207379   1.568359042  -1.089585969
  C   -1.762686934   0.715992521  -1.219839623
  C   -1.566430408  -0.278719020  -2.133268505
  S   -0.002860648  -0.183719190  -2.842477086
  C    0.396617647   1.202049831  -1.906984085
  H   -0.584575825   2.403660095  -0.409576482
  H   -2.671460929   0.831498415  -0.651148129
  H   -2.249488848  -1.055702195  -2.428600305
  H    1.361646339   1.666159205  -2.011133279
  C    0.440176200  -1.002937492   0.571955260
 Br   -0.553553737  -0.011145920   1.937274915
  H    1.329435182  -0.432918638   0.339154433
  H   -0.201814642  -1.090644876  -0.294079114
  H    0.686783387  -1.970567963   0.989617211
