8
charge=0 charge_a=0 charge_b=0 selection_a=1-6 selection_b=7-8 scaling=0.95 benchmark_Eint=-2.835 benchmark_unit=kcal/mol group=Halogens
  S    1.041190018  -1.766267725  -2.339105542
  S   -0.930413659  -1.600929235  -2.967020375
  S   -1.751286889  -0.293070213  -1.579074399
  S   -0.936607983   1.533479731  -2.133131607
  S    1.032802361   1.370857652  -1.499099431
  S    1.854561359   0.063290130  -2.886769093
 Br    0.526774249  -1.074927581   1.388479089
 Br   -0.651038710   0.879238592   1.735830458
