8
charge=0 charge_a=0 charge_b=0 selection_a=1-6 selection_b=7-8 scaling=1.50 benchmark_Eint=-0.572 benchmark_unit=kcal/mol group=Halogens
  S    1.041190018  -1.766267725  -2.339105542
  S   -0.930413659  -1.600929235  -2.967020375
  S   -1.751286889  -0.293070213  -1.579074399
  S   -0.936607983   1.533479731  -2.133131607
  S    1.032802361   1.370857652  -1.499099431
  S    1.854561359   0.063290130  -2.886769093
 Br    0.463259749  -1.065110571   3.506482363
 Br   -0.714553210   0.889055602   3.853833732
