14
charge=0 charge_a=0 charge_b=0 selection_a=1-9 selection_b=10-14 scaling=1.50 benchmark_Eint=-1.011 benchmark_unit=kcal/mol group=Halogens
  C   -1.031356464   1.787474368  -1.250736861
  C   -2.187219115   1.235637866  -1.865140998
  C   -1.965374558  -0.014621287  -2.368910256
  S   -0.349098510  -0.524503006  -2.097372078
  C    0.041125864   0.945201740  -1.301555740
  H   -1.001548874   2.755890008  -0.777643255
  H   -3.138368471   1.740825360  -1.926543616
  H   -2.658532625  -0.657419347  -2.882477753
  H    1.027082044   1.099484998  -0.901823911
  C    0.227419538  -0.703308638   4.264791459
  I    0.700665724   1.420678837   4.304688929
  I   -1.647659984  -1.016937303   3.225097678
  I    0.067021625  -1.434179725   6.305276694
  I    1.821150695  -1.776850795   3.245705060
