5
charge=0 charge_a=0 charge_b=0 selection_a=1-3 selection_b=4-5 scaling=2.00 benchmark_Eint=-0.065 benchmark_unit=kcal/mol group=Halogens
  S    0.032412349   0.515039989  -2.132680790
  C   -1.365481613  -0.011289944  -1.715041848
  S   -2.755776635  -0.540290096  -1.275922744
  I    0.807632227   0.361628429   5.785637774
  I    1.562625779  -2.150212120   5.208142979
