13
charge=0 charge_a=0 charge_b=0 selection_a=1-8 selection_b=9-13 scaling=1.50 benchmark_Eint=-1.383 benchmark_unit=kcal/mol group=Halogens
  C   -0.896247925  -1.262565584  -1.872123814
  S   -0.005805726   0.243485592  -1.333836970
  C   -1.636415262   1.068439763  -1.440126397
  S   -2.509197410  -0.416279919  -2.063138371
  H   -0.912204249  -2.027280296  -1.100413016
  H   -0.519833146  -1.667397861  -2.806093303
  H   -1.650179361   1.892387600  -2.146381574
  H   -1.997277041   1.390226056  -0.467085665
  C    0.606090387  -0.531662033   3.999774413
  I    1.034854548   1.564274582   3.773290975
  I   -1.375232972  -1.051983240   3.344090472
  I    2.122411498  -1.808327480   3.164056793
  H    0.626507928  -0.716816571   5.061782963
