13
charge=0 charge_a=0 charge_b=0 selection_a=1-8 selection_b=9-13 scaling=0.85 benchmark_Eint=-2.052 benchmark_unit=kcal/mol group=Halogens
  C   -0.896247925  -1.262565584  -1.872123814
  S   -0.005805726   0.243485592  -1.333836970
  C   -1.636415262   1.068439763  -1.440126397
  S   -2.509197410  -0.416279919  -2.063138371
  H   -0.912204249  -2.027280296  -1.100413016
  H   -0.519833146  -1.667397861  -2.806093303
  H   -1.650179361   1.892387600  -2.146381574
  H   -1.997277041   1.390226056  -0.467085665
  C   -0.113880405  -0.397404440   2.007225919
  I    0.314883756   1.698532175   1.780742481
  I   -2.095203764  -0.917725647   1.351541978
  I    1.402440706  -1.674069887   1.171508299
  H   -0.093462864  -0.582558978   3.069234469
