13
charge=0 charge_a=0 charge_b=0 selection_a=1-8 selection_b=9-13 scaling=1.05 benchmark_Eint=-5.499 benchmark_unit=kcal/mol group=Halogens
  C   -0.896247925  -1.262565584  -1.872123814
  S   -0.005805726   0.243485592  -1.333836970
  C   -1.636415262   1.068439763  -1.440126397
  S   -2.509197410  -0.416279919  -2.063138371
  H   -0.912204249  -2.027280296  -1.100413016
  H   -0.519833146  -1.667397861  -2.806093303
  H   -1.650179361   1.892387600  -2.146381574
  H   -1.997277041   1.390226056  -0.467085665
  C    0.107649070  -0.438714468   2.620317763
  I    0.536413231   1.657222147   2.393834325
  I   -1.873674289  -0.959035675   1.964633822
  I    1.623970181  -1.715379915   1.784600143
  H    0.128066611  -0.623869006   3.682326313
