7
charge=0 charge_a=0 charge_b=0 selection_a=1-5 selection_b=6-7 scaling=0.85 benchmark_Eint=0.056 benchmark_unit=kcal/mol group=Halogens
  C   -0.407791717   1.031040369  -1.283057119
  F    0.598972845   0.144349649  -1.267669227
  F   -1.557182966   0.370676273  -1.093525397
  F   -0.235020891   1.886231637  -0.267236495
  H   -0.426666155   1.564512552  -2.231431048
  F    0.612508723  -0.966181835   0.837589049
  F    0.592611234  -1.603295775   2.081367147
