7
charge=0 charge_a=0 charge_b=0 selection_a=1-5 selection_b=6-7 scaling=0.80 benchmark_Eint=1.060 benchmark_unit=kcal/mol group=Halogens
  C   -0.407791717   1.031040369  -1.283057119
  F    0.598972845   0.144349649  -1.267669227
  F   -1.557182966   0.370676273  -1.093525397
  F   -0.235020891   1.886231637  -0.267236495
  H   -0.426666155   1.564512552  -2.231431048
  F    0.571455975  -0.878718375   0.738281368
  F    0.551558486  -1.515832315   1.982059466
