10
charge=0 charge_a=0 charge_b=0 selection_a=1-5 selection_b=6-10 scaling=1.05 benchmark_Eint=-1.363 benchmark_unit=kcal/mol group=Halogens
  C    0.413384588  -2.332793894  -1.845575632
  F    0.259175776  -3.081221776  -2.929950537
  F    0.742787104  -3.106394865  -0.820444752
  F   -0.721943958  -1.704232717  -1.579199120
  F    1.373882866  -1.444823359  -2.056187976
  C   -0.329376974   1.206861213   1.105619832
 Cl    0.725356283  -0.166470370   1.516933597
 Cl    0.138678422   1.858390748  -0.481272655
 Cl   -0.157905638   2.474557385   2.341607568
 Cl   -2.019752596   0.658828487   1.048025051
