10
charge=0 charge_a=0 charge_b=0 selection_a=1-5 selection_b=6-10 scaling=1.00 benchmark_Eint=-1.490 benchmark_unit=kcal/mol group=Halogens
  C    0.413384588  -2.332793894  -1.845575632
  F    0.259175776  -3.081221776  -2.929950537
  F    0.742787104  -3.106394865  -0.820444752
  F   -0.721943958  -1.704232717  -1.579199120
  F    1.373882866  -1.444823359  -2.056187976
  C   -0.300940182   1.071168945   0.992454615
 Cl    0.753793075  -0.302162638   1.403768380
 Cl    0.167115214   1.722698480  -0.594437872
 Cl   -0.129468846   2.338865117   2.228442351
 Cl   -1.991315804   0.523136219   0.934859834
