10
charge=0 charge_a=0 charge_b=0 selection_a=1-5 selection_b=6-10 scaling=1.25 benchmark_Eint=-0.667 benchmark_unit=kcal/mol group=Halogens
  C    0.413384588  -2.332793894  -1.845575632
  F    0.259175776  -3.081221776  -2.929950537
  F    0.742787104  -3.106394865  -0.820444752
  F   -0.721943958  -1.704232717  -1.579199120
  F    1.373882866  -1.444823359  -2.056187976
  C   -0.443124142   1.749630283   1.558280699
 Cl    0.611609115   0.376298700   1.969594464
 Cl    0.024931254   2.401159818  -0.028611788
 Cl   -0.271652806   3.017326455   2.794268435
 Cl   -2.133499764   1.201597557   1.500685918
