11
charge=0 charge_a=0 charge_b=0 selection_a=1-6 selection_b=7-11 scaling=1.25 benchmark_Eint=-1.551 benchmark_unit=kcal/mol group=Halogens
  F    1.119140678  -1.387625948  -2.985379770
  C    0.030223410  -0.659965711  -3.127759909
  F   -1.060397341  -1.384295626  -3.279702933
  C    0.030223412   0.659965708  -3.127759911
  F    1.119140682   1.387625937  -2.985379778
  F   -1.060397333   1.384295634  -3.279702939
  C   -0.015736440  -0.000000003   1.837927819
 Br   -0.923409432   1.593889802   1.164025836
 Br   -0.923409460  -1.593889810   1.164025843
 Br   -0.059249149  -0.000000018   3.789017608
 Br    1.836513243   0.000000040   1.222404185
