11
charge=0 charge_a=0 charge_b=0 selection_a=1-6 selection_b=7-11 scaling=0.80 benchmark_Eint=5.433 benchmark_unit=kcal/mol group=Halogens
  F    1.119140678  -1.387625948  -2.985379770
  C    0.030223410  -0.659965711  -3.127759909
  F   -1.060397341  -1.384295626  -3.279702933
  C    0.030223412   0.659965708  -3.127759911
  F    1.119140682   1.387625937  -2.985379778
  F   -1.060397333   1.384295634  -3.279702939
  C   -0.000597057  -0.000000005   0.234950498
 Br   -0.908270049   1.593889800  -0.438951485
 Br   -0.908270077  -1.593889812  -0.438951478
 Br   -0.044109766  -0.000000020   2.186040287
 Br    1.851652626   0.000000038  -0.380573136
