11
charge=0 charge_a=0 charge_b=0 selection_a=1-6 selection_b=7-11 scaling=0.95 benchmark_Eint=-3.117 benchmark_unit=kcal/mol group=Halogens
  F    1.119140678  -1.387625948  -2.985379770
  C    0.030223410  -0.659965711  -3.127759909
  F   -1.060397341  -1.384295626  -3.279702933
  C    0.030223412   0.659965708  -3.127759911
  F    1.119140682   1.387625937  -2.985379778
  F   -1.060397333   1.384295634  -3.279702939
  C   -0.005643518  -0.000000004   0.769276272
 Br   -0.913316510   1.593889801   0.095374289
 Br   -0.913316538  -1.593889811   0.095374296
 Br   -0.049156227  -0.000000019   2.720366061
 Br    1.846606165   0.000000039   0.153752638
