17
charge=0 charge_a=0 charge_b=0 selection_a=1-5 selection_b=6-17 scaling=1.00 benchmark_Eint=-4.151 benchmark_unit=kcal/mol group=Halogens
  C   -1.896839290   0.433960941  -1.943300719
  I    0.241410953   0.359781663  -2.203131049
  H   -2.209616777  -0.519963046  -1.539818635
  H   -2.331462583   0.612237722  -2.917830303
  H   -2.113778703   1.243548313  -1.259195987
  F    2.687796514   0.880346680   1.876921229
  C    1.528942712   0.259363285   1.674605299
  C    0.340812614   0.972101581   1.735109466
  F    0.358211513   2.277723549   1.989841943
  C   -0.865320305   0.325125641   1.514515431
  F   -2.006694533   1.013275073   1.548372551
  C   -0.884076509  -1.032043580   1.233045548
  F   -2.043521522  -1.645976702   0.995762486
  C    0.303145386  -1.745304444   1.172319488
  F    0.284727327  -3.044486531   0.887385407
  C    1.510053546  -1.098917854   1.393432491
  F    2.650907990  -1.779735262   1.326106994
