17
charge=0 charge_a=0 charge_b=0 selection_a=1-5 selection_b=6-17 scaling=2.00 benchmark_Eint=-0.364 benchmark_unit=kcal/mol group=Halogens
  C   -1.896839290   0.433960941  -1.943300719
  I    0.241410953   0.359781663  -2.203131049
  H   -2.209616777  -0.519963046  -1.539818635
  H   -2.331462583   0.612237722  -2.917830303
  H   -2.113778703   1.243548313  -1.259195987
  F    2.923050080   0.316604476   4.588289241
  C    1.764196278  -0.304378919   4.385973311
  C    0.576066180   0.408359377   4.446477478
  F    0.593465079   1.713981345   4.701209955
  C   -0.630066739  -0.238616563   4.225883443
  F   -1.771440967   0.449532869   4.259740563
  C   -0.648822943  -1.595785784   3.944413560
  F   -1.808267956  -2.209718906   3.707130498
  C    0.538398952  -2.309046648   3.883687500
  F    0.519980893  -3.608228735   3.598753419
  C    1.745307112  -1.662660058   4.104800503
  F    2.886161556  -2.343477466   4.037475006
