17
charge=0 charge_a=0 charge_b=0 selection_a=1-5 selection_b=6-17 scaling=0.85 benchmark_Eint=-2.102 benchmark_unit=kcal/mol group=Halogens
  C   -1.896839290   0.433960941  -1.943300719
  I    0.241410953   0.359781663  -2.203131049
  H   -2.209616777  -0.519963046  -1.539818635
  H   -2.331462583   0.612237722  -2.917830303
  H   -2.113778703   1.243548313  -1.259195987
  F    2.652508479   0.964908011   1.470216027
  C    1.493654677   0.343924616   1.267900097
  C    0.305524579   1.056662912   1.328404264
  F    0.322923478   2.362284880   1.583136741
  C   -0.900608340   0.409686972   1.107810229
  F   -2.041982568   1.097836404   1.141667349
  C   -0.919364544  -0.947482249   0.826340346
  F   -2.078809557  -1.561415371   0.589057284
  C    0.267857351  -1.660743113   0.765614286
  F    0.249439292  -2.959925200   0.480680205
  C    1.474765511  -1.014356523   0.986727289
  F    2.615619955  -1.695173931   0.919401792
