10
charge=0 charge_a=0 charge_b=0 selection_a=1-5 selection_b=6-10 scaling=0.90 benchmark_Eint=-2.215 benchmark_unit=kcal/mol group=Halogens
  C   -0.027805215   0.478916181  -2.148125326
 Cl    1.360925793  -0.618598012  -1.938123412
 Cl   -1.536052528  -0.423426333  -1.851255606
 Cl   -0.034736688   1.114010043  -3.807306317
 Cl    0.096942924   1.815505217  -0.990269030
  C   -0.012491055  -0.932645400   1.377376829
 Cl    1.540102068  -0.144154466   1.741729750
 Cl   -1.417142938   0.058035527   1.836105694
  H   -0.057739545  -1.856471926   1.937623695
  H   -0.058246027  -1.104345250   0.311142407
