10
charge=0 charge_a=0 charge_b=0 selection_a=1-5 selection_b=6-10 scaling=1.00 benchmark_Eint=-2.827 benchmark_unit=kcal/mol group=Halogens
  C   -0.027805215   0.478916181  -2.148125326
 Cl    1.360925793  -0.618598012  -1.938123412
 Cl   -1.536052528  -0.423426333  -1.851255606
 Cl   -0.034736688   1.114010043  -3.807306317
 Cl    0.096942924   1.815505217  -0.990269030
  C   -0.006732555  -0.983565482   1.668527352
 Cl    1.545860568  -0.195074548   2.032880273
 Cl   -1.411384438   0.007115445   2.127256217
  H   -0.051981045  -1.907392008   2.228774218
  H   -0.052487527  -1.155265332   0.602292930
