10
charge=0 charge_a=0 charge_b=0 selection_a=1-5 selection_b=6-10 scaling=0.95 benchmark_Eint=-2.716 benchmark_unit=kcal/mol group=Halogens
  C   -0.027805215   0.478916181  -2.148125326
 Cl    1.360925793  -0.618598012  -1.938123412
 Cl   -1.536052528  -0.423426333  -1.851255606
 Cl   -0.034736688   1.114010043  -3.807306317
 Cl    0.096942924   1.815505217  -0.990269030
  C   -0.009611805  -0.958105441   1.522952090
 Cl    1.542981318  -0.169614507   1.887305011
 Cl   -1.414263688   0.032575486   1.981680955
  H   -0.054860295  -1.881931967   2.083198956
  H   -0.055366777  -1.129805291   0.456717668
