10
charge=0 charge_a=0 charge_b=0 selection_a=1-5 selection_b=6-10 scaling=2.00 benchmark_Eint=-0.197 benchmark_unit=kcal/mol group=Halogens
  C   -0.027805215   0.478916181  -2.148125326
 Cl    1.360925793  -0.618598012  -1.938123412
 Cl   -1.536052528  -0.423426333  -1.851255606
 Cl   -0.034736688   1.114010043  -3.807306317
 Cl    0.096942924   1.815505217  -0.990269030
  C    0.050852450  -1.492766304   4.580032582
 Cl    1.603445573  -0.704275370   4.944385503
 Cl   -1.353799433  -0.502085377   5.038761447
  H    0.005603960  -2.416592830   5.140279448
  H    0.005097478  -1.664466154   3.513798160
