10
charge=0 charge_a=0 charge_b=0 selection_a=1-5 selection_b=6-10 scaling=0.90 benchmark_Eint=-1.865 benchmark_unit=kcal/mol group=Halogens
  C    2.830740057  -2.557987006  -1.655595971
 Cl    4.490812742  -1.949435358  -1.348179624
  H    2.904225055  -3.442764097  -2.277420208
  H    2.270272173  -1.779254528  -2.158838815
  H    2.372812537  -2.794239160  -0.702714442
  C    0.361066696  -0.119059449   0.056001658
 Br   -0.708679453   1.183247171   1.039656280
 Br   -0.140925485  -1.926492675   0.614193270
 Br    2.254077384   0.168355900   0.413974815
 Br    0.024436658   0.079042744  -1.861543748
