10
charge=0 charge_a=0 charge_b=0 selection_a=1-5 selection_b=6-10 scaling=1.00 benchmark_Eint=-2.507 benchmark_unit=kcal/mol group=Halogens
  C    2.830740057  -2.557987006  -1.655595971
 Cl    4.490812742  -1.949435358  -1.348179624
  H    2.904225055  -3.442764097  -2.277420208
  H    2.270272173  -1.779254528  -2.158838815
  H    2.372812537  -2.794239160  -0.702714442
  C    0.094660769   0.029125246   0.166007985
 Br   -0.975085380   1.331431866   1.149662607
 Br   -0.407331412  -1.778307980   0.724199597
 Br    1.987671457   0.316540595   0.523981142
 Br   -0.241969269   0.227227439  -1.751537421
