10
charge=0 charge_a=0 charge_b=0 selection_a=1-5 selection_b=6-10 scaling=1.25 benchmark_Eint=-1.474 benchmark_unit=kcal/mol group=Halogens
  C    2.830740057  -2.557987006  -1.655595971
 Cl    4.490812742  -1.949435358  -1.348179624
  H    2.904225055  -3.442764097  -2.277420208
  H    2.270272173  -1.779254528  -2.158838815
  H    2.372812537  -2.794239160  -0.702714442
  C   -0.571354049   0.399586983   0.441023801
 Br   -1.641100198   1.701893603   1.424678423
 Br   -1.073346230  -1.407846243   0.999215413
 Br    1.321656639   0.687002332   0.798996958
 Br   -0.907984087   0.597689176  -1.476521605
