10
charge=0 charge_a=0 charge_b=0 selection_a=1-5 selection_b=6-10 scaling=0.95 benchmark_Eint=-2.390 benchmark_unit=kcal/mol group=Halogens
  C    2.830740057  -2.557987006  -1.655595971
 Cl    4.490812742  -1.949435358  -1.348179624
  H    2.904225055  -3.442764097  -2.277420208
  H    2.270272173  -1.779254528  -2.158838815
  H    2.372812537  -2.794239160  -0.702714442
  C    0.227863733  -0.044967101   0.111004822
 Br   -0.841882416   1.257339519   1.094659444
 Br   -0.274128448  -1.852400327   0.669196434
 Br    2.120874421   0.242448248   0.468977979
 Br   -0.108766305   0.153135092  -1.806540584
