11
charge=0 charge_a=0 charge_b=0 selection_a=1-5 selection_b=6-11 scaling=1.05 benchmark_Eint=-4.585 benchmark_unit=kcal/mol group=Halogens
  C   -0.269119812   0.148350742  -1.332434432
  I    0.483809167  -1.857554267  -1.150834897
  I   -2.288985555   0.356212921  -0.624217495
  I    1.060768185   1.612203322  -0.489164317
  H   -0.305584508   0.354224769  -2.390142757
 Cl   -0.934648381   1.334776577   3.469612803
  C    0.062492906  -0.027567459   3.162552150
 Cl   -0.771741944  -1.502917739   2.894732803
  C    1.398361751   0.054431806   3.137637104
 Cl    2.233019355   1.525721142   3.433351708
 Cl    2.398617420  -1.299598688   2.807387858
