11
charge=0 charge_a=0 charge_b=0 selection_a=1-5 selection_b=6-11 scaling=0.85 benchmark_Eint=0.868 benchmark_unit=kcal/mol group=Halogens
  C   -0.269119812   0.148350742  -1.332434432
  I    0.483809167  -1.857554267  -1.150834897
  I   -2.288985555   0.356212921  -0.624217495
  I    1.060768185   1.612203322  -0.489164317
  H   -0.305584508   0.354224769  -2.390142757
 Cl   -1.118153484   1.339798640   2.734240266
  C   -0.121012197  -0.022545396   2.427179613
 Cl   -0.955247047  -1.497895676   2.159360266
  C    1.214856648   0.059453869   2.402264567
 Cl    2.049514252   1.530743205   2.697979171
 Cl    2.215112317  -1.294576625   2.072015321
