7
charge=0 charge_a=0 charge_b=0 selection_a=1-2 selection_b=3-7 scaling=1.10 benchmark_Eint=-2.103 benchmark_unit=kcal/mol group=Halogens
 Br    1.386826223   0.561511796  -1.877838459
 Br   -0.816176382  -0.049368241  -1.550008679
  C   -0.508288445   0.017780072   2.900928954
 Br   -2.340296335  -0.495123121   2.496405762
 Br    0.772591587  -1.291746736   2.257686510
 Br   -0.097987967   1.807697344   2.270668945
  H   -0.424157420   0.036930431   3.975018045
