7
charge=0 charge_a=0 charge_b=0 selection_a=1-2 selection_b=3-7 scaling=2.00 benchmark_Eint=-0.064 benchmark_unit=kcal/mol group=Halogens
 Br    1.386826223   0.561511796  -1.877838459
 Br   -0.816176382  -0.049368241  -1.550008679
  C   -1.221912175  -0.193882864   6.383525500
 Br   -3.053920065  -0.706786057   5.979002308
 Br    0.058967857  -1.503409672   5.740283056
 Br   -0.811611697   1.596034408   5.753265491
  H   -1.137781150  -0.174732505   7.457614591
