7
charge=0 charge_a=0 charge_b=0 selection_a=1-2 selection_b=3-7 scaling=1.05 benchmark_Eint=-2.407 benchmark_unit=kcal/mol group=Halogens
 Br    1.386826223   0.561511796  -1.877838459
 Br   -0.816176382  -0.049368241  -1.550008679
  C   -0.468642683   0.029539124   2.707451368
 Br   -2.300650573  -0.483364069   2.302928176
 Br    0.812237349  -1.279987684   2.064208924
 Br   -0.058342205   1.819456396   2.077191359
  H   -0.384511658   0.048689483   3.781540459
