10
charge=0 charge_a=0 charge_b=0 selection_a=1-5 selection_b=6-10 scaling=0.80 benchmark_Eint=1.251 benchmark_unit=kcal/mol group=Halogens
  C   -0.229702461  -0.082836143  -0.683340592
  I    1.625319655  -0.456458854  -1.704148973
  I   -1.266758213  -1.892132234  -0.143145590
  I   -0.022998857   1.284668984   0.962753254
  H   -0.866112406   0.411681089  -1.399586741
  C    1.636677061  -1.864478241   1.638773102
 Br    3.121130096  -0.593793039   1.725613830
  H    1.868336628  -2.688097615   2.301918145
  H    1.550924764  -2.195371179   0.612058653
  H    0.742267835  -1.342762530   1.953154102
