10
charge=0 charge_a=0 charge_b=0 selection_a=1-5 selection_b=6-10 scaling=2.00 benchmark_Eint=-0.254 benchmark_unit=kcal/mol group=Halogens
  C   -0.229702461  -0.082836143  -0.683340592
  I    1.625319655  -0.456458854  -1.704148973
  I   -1.266758213  -1.892132234  -0.143145590
  I   -0.022998857   1.284668984   0.962753254
  H   -0.866112406   0.411681089  -1.399586741
  C    4.802421408  -2.385443864   3.940732579
 Br    6.286874443  -1.114758662   4.027573307
  H    5.034080975  -3.209063238   4.603877622
  H    4.716669111  -2.716336802   2.914018130
  H    3.908012182  -1.863728153   4.255113579
