10
charge=0 charge_a=0 charge_b=0 selection_a=1-5 selection_b=6-10 scaling=0.95 benchmark_Eint=-2.806 benchmark_unit=kcal/mol group=Halogens
  C   -0.229702461  -0.082836143  -0.683340592
  I    1.625319655  -0.456458854  -1.704148973
  I   -1.266758213  -1.892132234  -0.143145590
  I   -0.022998857   1.284668984   0.962753254
  H   -0.866112406   0.411681089  -1.399586741
  C    2.032395105  -1.929598944   1.926518037
 Br    3.516848140  -0.658913742   2.013358765
  H    2.264054672  -2.753218318   2.589663080
  H    1.946642808  -2.260491882   0.899803588
  H    1.137985879  -1.407883233   2.240899037
