10
charge=0 charge_a=0 charge_b=0 selection_a=1-5 selection_b=6-10 scaling=1.05 benchmark_Eint=-2.923 benchmark_unit=kcal/mol group=Halogens
  C   -0.229702461  -0.082836143  -0.683340592
  I    1.625319655  -0.456458854  -1.704148973
  I   -1.266758213  -1.892132234  -0.143145590
  I   -0.022998857   1.284668984   0.962753254
  H   -0.866112406   0.411681089  -1.399586741
  C    2.296207133  -1.973012746   2.118347993
 Br    3.780660168  -0.702327544   2.205188721
  H    2.527866700  -2.796632120   2.781493036
  H    2.210454836  -2.303905684   1.091633544
  H    1.401797907  -1.451297035   2.432728993
