7
charge=0 charge_a=0 charge_b=0 selection_a=1-5 selection_b=6-7 scaling=1.05 benchmark_Eint=-3.207 benchmark_unit=kcal/mol group=Halogens
  C   -0.032229537   0.941134549  -2.316728470
  I    2.054634912   0.488053652  -2.141498176
  I   -1.359912311  -0.738034010  -2.223816811
  H   -0.179927999   1.416818718  -3.274364288
  H   -0.284568375   1.588568500  -1.490357331
  I    0.704945937  -1.363698065   1.787421980
  I   -0.225094015   1.154386775   1.810915784
