11
charge=0 charge_a=0 charge_b=0 selection_a=1-1 selection_b=2-11 scaling=0.80 benchmark_Eint=0.222 benchmark_unit=kcal/mol group=NobleGases
 He    0.162012945  -1.316839064  -3.685934052
  C   -1.230280707  -1.257841098  -1.019153408
  C   -0.186037671  -0.440293740  -0.882412598
  C    0.166474138   0.232680622   0.354307485
  C    1.210965549   1.050018624   0.491001971
  H   -1.455600385  -1.738254348  -1.959632775
  H   -1.891421654  -1.469518920  -0.188824903
  H    0.457352259  -0.249130358  -1.734666891
  H   -0.476879620   0.041502969   1.206722046
  H    1.872076259   1.261681160  -0.339360943
  H    1.436608129   1.530289843   1.431598336
