15
charge=0 charge_a=0 charge_b=0 selection_a=1-1 selection_b=2-15 scaling=2.00 benchmark_Eint=-0.009 benchmark_unit=kcal/mol group=NobleGases
 He    1.996281983   1.026855490  -2.291995212
  C   -0.302003876  -1.969916498   2.746825532
  C   -1.618468006  -1.676957185   2.033139929
  C   -2.169589316  -0.285934338   2.338624427
  C   -3.483993135   0.008544580   1.621654536
  H    0.068023730  -2.967880875   2.512234363
  H   -0.420442403  -1.905441749   3.829555020
  H    0.468305166  -1.253429175   2.457696609
  H   -2.363190052  -2.426427380   2.314401255
  H   -1.480975336  -1.778183968   0.953306229
  H   -1.423873118   0.463511299   2.060379385
  H   -2.309989171  -0.186098229   3.418364186
  H   -3.362245334  -0.053790355   0.539166875
  H   -3.854667304   1.006082710   1.857067241
  H   -4.255333850  -0.708460532   1.907032446
