16
charge=0 charge_a=0 charge_b=0 selection_a=1-1 selection_b=2-16 scaling=0.80 benchmark_Eint=0.769 benchmark_unit=kcal/mol group=NobleGases
 He    0.160996024  -0.703531874  -1.666992187
  C   -0.096505106  -0.282495666   1.043819960
  C   -0.839590243   0.934301033   1.524705047
  C    1.280505004  -0.245788620   0.832415067
  C    1.970520682  -1.376562708   0.412641442
  C    1.290906716  -2.567824194   0.194883636
  C   -0.082935522  -2.617312042   0.398818963
  C   -0.767315989  -1.484469296   0.818151019
  H   -0.292274138   1.847956588   1.299428448
  H   -0.988819460   0.898677034   2.605814368
  H   -1.824150693   1.005308235   1.063926986
  H    1.817779927   0.679235238   0.995279226
  H    3.038386881  -1.325002473   0.252150332
  H    1.824819179  -3.447667874  -0.134759157
  H   -0.622819169  -3.538114487   0.227276113
  H   -1.837831529  -1.531382726   0.969882984
