16
charge=0 charge_a=0 charge_b=0 selection_a=1-1 selection_b=2-16 scaling=1.10 benchmark_Eint=-0.234 benchmark_unit=kcal/mol group=NobleGases
 He    0.160996024  -0.703531874  -1.666992187
  C   -0.009679963  -0.427581837   2.045653667
  C   -0.752765100   0.789214862   2.526538754
  C    1.367330147  -0.390874791   1.834248774
  C    2.057345825  -1.521648879   1.414475149
  C    1.377731859  -2.712910365   1.196717343
  C    0.003889621  -2.762398213   1.400652670
  C   -0.680490846  -1.629555467   1.819984726
  H   -0.205448995   1.702870417   2.301262155
  H   -0.901994317   0.753590863   3.607648075
  H   -1.737325550   0.860222064   2.065760693
  H    1.904605070   0.534149067   1.997112933
  H    3.125212024  -1.470088644   1.253984039
  H    1.911644322  -3.592754045   0.867074550
  H   -0.535994026  -3.683200658   1.229109820
  H   -1.751006386  -1.676468897   1.971716691
