18
charge=0 charge_a=0 charge_b=0 selection_a=1-1 selection_b=2-18 scaling=0.80 benchmark_Eint=0.003 benchmark_unit=kcal/mol group=NobleGases
 He   -0.040873924   0.042444354  -1.635803027
  C    0.017039096   1.018374135   1.946558620
  C    0.351194348  -0.467135514   2.127120888
  C    1.625539299  -0.803161243   1.343470826
  C    0.572827193  -0.764083090   3.614908112
  C   -0.810598287  -1.319706294   1.603340266
  H    0.828862801   1.649057207   2.311422435
  H   -0.887149802   1.285493021   2.495226637
  H   -0.146240052   1.257635906   0.894965922
  H    2.469764976  -0.209379446   1.696513986
  H    1.495325334  -0.600998035   0.279576542
  H    1.886894126  -1.856367531   1.454822409
  H    1.395786693  -0.169687871   4.014121643
  H    0.812676532  -1.816547358   3.772172955
  H   -0.320314607  -0.533383004   4.197160226
  H   -0.990335356  -1.128018444   0.544717958
  H   -1.731864032  -1.100305967   2.144702624
  H   -0.598744857  -2.383407755   1.719980330
