18
charge=0 charge_a=0 charge_b=0 selection_a=1-1 selection_b=2-18 scaling=1.10 benchmark_Eint=-0.089 benchmark_unit=kcal/mol group=NobleGases
 He   -0.040873924   0.042444354  -1.635803027
  C    0.111708446   0.895330941   2.855128748
  C    0.445863698  -0.590178708   3.035691016
  C    1.720208649  -0.926204437   2.252040954
  C    0.667496543  -0.887126284   4.523478240
  C   -0.715928937  -1.442749488   2.511910394
  H    0.923532151   1.526014013   3.219992563
  H   -0.792480452   1.162449827   3.403796765
  H   -0.051570702   1.134592712   1.803536050
  H    2.564434326  -0.332422640   2.605084114
  H    1.589994684  -0.724041229   1.188146670
  H    1.981563476  -1.979410725   2.363392537
  H    1.490456043  -0.292731065   4.922691771
  H    0.907345882  -1.939590552   4.680743083
  H   -0.225645257  -0.656426198   5.105730354
  H   -0.895666006  -1.251061638   1.453288086
  H   -1.637194682  -1.223349161   3.053272752
  H   -0.504075507  -2.506450949   2.628550458
