7
charge=0 charge_a=0 charge_b=0 selection_a=1-1 selection_b=2-7 scaling=1.10 benchmark_Eint=-0.100 benchmark_unit=kcal/mol group=NobleGases
 He    0.098849926   0.056987419  -1.668612629
  C    1.617887542   0.006294261   2.284419073
  C    0.460011300  -0.279826647   2.125050558
  C   -0.851390969  -0.603774781   1.944515926
  C   -2.009266506  -0.889683694   1.784833108
  H    2.638619247   0.258530016   2.424907082
  H   -3.030005951  -1.141721915   1.644064955
