15
charge=0 charge_a=0 charge_b=0 selection_a=1-1 selection_b=2-15 scaling=0.80 benchmark_Eint=0.167 benchmark_unit=kcal/mol group=NobleGases
 He    1.996281983   1.026855490  -2.291995212
  C    1.810458485  -0.879460057   0.315439927
  C    0.493994355  -0.586500744  -0.398245676
  C   -0.057126955   0.804522103  -0.092761178
  C   -1.371530774   1.099001021  -0.809731069
  H    2.180486091  -1.877424434   0.080848758
  H    1.692019958  -0.814985308   1.398169415
  H    2.580767527  -0.162972734   0.026311004
  H   -0.250727691  -1.335970939  -0.116984350
  H    0.631487025  -0.687727527  -1.478079376
  H    0.688589243   1.553967740  -0.371006220
  H   -0.197526810   0.904358212   0.986978581
  H   -1.249782973   1.036666086  -1.892218730
  H   -1.742204943   2.096539151  -0.574318364
  H   -2.142871489   0.381995909  -0.524353159
