16
charge=0 charge_a=0 charge_b=0 selection_a=1 selection_b=2-16 scaling=1.00 benchmark_Eint=-0.278 benchmark_unit=kcal/mol group=NobleGases
 He    0.160996024  -0.703531874  -1.666992187
  C   -0.038621677  -0.379219780   1.711709098
  C   -0.781706814   0.837576919   2.192594185
  C    1.338388433  -0.342512734   1.500304205
  C    2.028404111  -1.473286822   1.080530580
  C    1.348790145  -2.664548308   0.862772774
  C   -0.025052093  -2.714036156   1.066708101
  C   -0.709432560  -1.581193410   1.486040157
  H   -0.234390709   1.751232474   1.967317586
  H   -0.930936031   0.801952920   3.273703506
  H   -1.766267264   0.908584121   1.731816124
  H    1.875663356   0.582511124   1.663168364
  H    3.096270310  -1.421726587   0.920039470
  H    1.882702608  -3.544391988   0.533129981
  H   -0.564935740  -3.634838601   0.895165251
  H   -1.779948100  -1.628106840   1.637772122
