19
charge=0 charge_a=0 charge_b=0 selection_a=1-1 selection_b=2-19 scaling=1.05 benchmark_Eint=-0.148 benchmark_unit=kcal/mol group=NobleGases
 He    0.074593784   3.281190675  -2.402376035
  C    0.896244530   0.885251481   0.403317109
  C   -0.625375205   1.046072871   0.421044645
  C   -1.309910028  -0.020350597  -0.436751105
  C   -0.892223111  -1.430520630  -0.013866800
  C    0.629501128  -1.591387989  -0.030811264
  C    1.313927592  -0.524728800   0.826871990
  H    1.362848323   1.628888168   1.051581576
  H    1.264778430   1.078429203  -0.608702320
  H   -0.904499827   2.043671107   0.078394221
  H   -0.982232811   0.959239553   1.451937548
  H   -1.036887906   0.134212624  -1.485133508
  H   -2.394439703   0.086303408  -0.378723427
  H   -1.358377920  -2.173762043  -0.662889859
  H   -1.261209054  -1.624617744   0.997952919
  H    0.986908602  -1.504989882  -1.061557389
  H    0.908249115  -2.589073268   0.312496735
  H    2.398458891  -0.631444407   0.768978312
  H    1.040754002  -0.679074760   1.875278016
