15
charge=0 charge_a=0 charge_b=0 selection_a=1-1 selection_b=2-15 scaling=1.50 benchmark_Eint=-0.042 benchmark_unit=kcal/mol group=NobleGases
 He    1.996281983   1.026855490  -2.291995212
  C    0.578188774  -1.515559647   1.733748196
  C   -0.738275356  -1.222600334   1.020062593
  C   -1.289396666   0.168422513   1.325547091
  C   -2.603800485   0.462901431   0.608577200
  H    0.948216380  -2.513524024   1.499157027
  H    0.459750247  -1.451084898   2.816477684
  H    1.348497816  -0.799072324   1.444619273
  H   -1.482997402  -1.972070529   1.301323919
  H   -0.600782686  -1.323827117  -0.059771107
  H   -0.543680468   0.917868150   1.047302049
  H   -1.429796521   0.268258622   2.405286850
  H   -2.482052684   0.400566496  -0.473910461
  H   -2.974474654   1.460439561   0.843989905
  H   -3.375141200  -0.254103681   0.893955110
