19
charge=0 charge_a=0 charge_b=0 selection_a=1-1 selection_b=2-19 scaling=1.25 benchmark_Eint=-0.086 benchmark_unit=kcal/mol group=NobleGases
 He    0.074593784   3.281190675  -2.402376035
  C    0.886940763   0.429613657   0.736325147
  C   -0.634678972   0.590435047   0.754052683
  C   -1.319213795  -0.475988421  -0.103743067
  C   -0.901526878  -1.886158454   0.319141238
  C    0.620197361  -2.047025813   0.302196774
  C    1.304623825  -0.980366624   1.159880028
  H    1.353544556   1.173250344   1.384589614
  H    1.255474663   0.622791379  -0.275694282
  H   -0.913803594   1.588033283   0.411402259
  H   -0.991536578   0.503601729   1.784945586
  H   -1.046191673  -0.321425200  -1.152125470
  H   -2.403743470  -0.369334416  -0.045715389
  H   -1.367681687  -2.629399867  -0.329881821
  H   -1.270512821  -2.080255568   1.330960957
  H    0.977604835  -1.960627706  -0.728549351
  H    0.898945348  -3.044711092   0.645504773
  H    2.389155124  -1.087082231   1.101986350
  H    1.031450235  -1.134712584   2.208286054
