16
charge=0 charge_a=0 charge_b=0 selection_a=1-1 selection_b=2-16 scaling=0.95 benchmark_Eint=-0.248 benchmark_unit=kcal/mol group=NobleGases
 He    0.160996024  -0.703531874  -1.666992187
  C   -0.053092534  -0.355038751   1.544736814
  C   -0.796177671   0.861757948   2.025621901
  C    1.323917576  -0.318331705   1.333331921
  C    2.013933254  -1.449105793   0.913558296
  C    1.334319288  -2.640367279   0.695800490
  C   -0.039522950  -2.689855127   0.899735817
  C   -0.723903417  -1.557012381   1.319067873
  H   -0.248861566   1.775413503   1.800345302
  H   -0.945406888   0.826133949   3.106731222
  H   -1.780738121   0.932765150   1.564843840
  H    1.861192499   0.606692153   1.496196080
  H    3.081799453  -1.397545558   0.753067186
  H    1.868231751  -3.520210959   0.366157697
  H   -0.579406597  -3.610657572   0.728192967
  H   -1.794418957  -1.603925811   1.470799838
