18
charge=0 charge_a=0 charge_b=0 selection_a=1-1 selection_b=2-18 scaling=1.50 benchmark_Eint=-0.023 benchmark_unit=kcal/mol group=NobleGases
 He   -0.040873924   0.042444354  -1.635803027
  C    0.237934245   0.731273349   4.066555586
  C    0.572089497  -0.754236300   4.247117854
  C    1.846434448  -1.090262029   3.463467792
  C    0.793722342  -1.051183876   5.734905078
  C   -0.589703138  -1.606807080   3.723337232
  H    1.049757950   1.361956421   4.431419401
  H   -0.666254653   0.998392235   4.615223603
  H    0.074655097   0.970535120   3.014962888
  H    2.690660125  -0.496480232   3.816510952
  H    1.716220483  -0.888098821   2.399573508
  H    2.107789275  -2.143468317   3.574819375
  H    1.616681842  -0.456788657   6.134118609
  H    1.033571681  -2.103648144   5.892169921
  H   -0.099419458  -0.820483790   6.317157192
  H   -0.769440207  -1.415119230   2.664714924
  H   -1.510968883  -1.387406753   4.264699590
  H   -0.377849708  -2.670508541   3.839977296
