11
charge=0 charge_a=0 charge_b=0 selection_a=1-1 selection_b=2-11 scaling=1.05 benchmark_Eint=-0.130 benchmark_unit=kcal/mol group=NobleGases
 He    0.162012945  -1.316839064  -3.685934052
  C   -1.263220659  -1.025169499  -0.362773115
  C   -0.218977623  -0.207622141  -0.226032305
  C    0.133534186   0.465352221   1.010687778
  C    1.178025597   1.282690223   1.147382264
  H   -1.488540337  -1.505582749  -1.303252482
  H   -1.924361606  -1.236847321   0.467555390
  H    0.424412307  -0.016458759  -1.078286598
  H   -0.509819572   0.274174568   1.863102339
  H    1.839136307   1.494352759   0.317019350
  H    1.403668177   1.762961442   2.087978629
