19
charge=0 charge_a=0 charge_b=0 selection_a=1-1 selection_b=2-19 scaling=0.85 benchmark_Eint=-0.050 benchmark_unit=kcal/mol group=NobleGases
 He    0.074593784   3.281190675  -2.402376035
  C    0.905548298   1.340889305   0.070309072
  C   -0.616071437   1.501710695   0.088036608
  C   -1.300606260   0.435287227  -0.769759142
  C   -0.882919343  -0.974882806  -0.346874837
  C    0.638804896  -1.135750165  -0.363819301
  C    1.323231360  -0.069090976   0.493863953
  H    1.372152091   2.084525992   0.718573539
  H    1.274082198   1.534067027  -0.941710357
  H   -0.895196059   2.499308931  -0.254613816
  H   -0.972929043   1.414877377   1.118929511
  H   -1.027584138   0.589850448  -1.818141545
  H   -2.385135935   0.541941232  -0.711731464
  H   -1.349074152  -1.718124219  -0.995897896
  H   -1.251905286  -1.168979920   0.664944882
  H    0.996212370  -1.049352058  -1.394565426
  H    0.917552883  -2.133435444  -0.020511302
  H    2.407762659  -0.175806583   0.435970275
  H    1.050057770  -0.223436936   1.542269979
