15
charge=0 charge_a=0 charge_b=0 selection_a=1-1 selection_b=2-15 scaling=1.05 benchmark_Eint=-0.178 benchmark_unit=kcal/mol group=NobleGases
 He    1.996281983   1.026855490  -2.291995212
  C    1.370362160  -1.106638482   0.821978595
  C    0.053898030  -0.813679169   0.108292992
  C   -0.497223280   0.577343678   0.413777490
  C   -1.811627099   0.871822596  -0.303192401
  H    1.740389766  -2.104602859   0.587387426
  H    1.251923633  -1.042163733   1.904708083
  H    2.140671202  -0.390151159   0.532849672
  H   -0.690824016  -1.563149364   0.389554318
  H    0.191390700  -0.914905952  -0.971540708
  H    0.248492918   1.326789315   0.135532448
  H   -0.637623135   0.677179787   1.493517249
  H   -1.689879298   0.809487661  -1.385680062
  H   -2.182301268   1.869360726  -0.067779696
  H   -2.582967814   0.154817484  -0.017814491
