18
charge=0 charge_a=0 charge_b=0 selection_a=1-1 selection_b=2-18 scaling=0.95 benchmark_Eint=-0.114 benchmark_unit=kcal/mol group=NobleGases
 He   -0.040873924   0.042444354  -1.635803027
  C    0.064373771   0.956852538   2.400843684
  C    0.398529023  -0.528657111   2.581405952
  C    1.672873974  -0.864682840   1.797755890
  C    0.620161868  -0.825604687   4.069193176
  C   -0.763263612  -1.381227891   2.057625330
  H    0.876197476   1.587535610   2.765707499
  H   -0.839815127   1.223971424   2.949511701
  H   -0.098905377   1.196114309   1.349250986
  H    2.517099651  -0.270901043   2.150799050
  H    1.542660009  -0.662519632   0.733861606
  H    1.934228801  -1.917889128   1.909107473
  H    1.443121368  -0.231209468   4.468406707
  H    0.860011207  -1.878068955   4.226458019
  H   -0.272979932  -0.594904601   4.651445290
  H   -0.943000681  -1.189540041   0.999003022
  H   -1.684529357  -1.161827564   2.598987688
  H   -0.551410182  -2.444929352   2.174265394
