7
charge=0 charge_a=0 charge_b=0 selection_a=1-1 selection_b=2-7 scaling=1.50 benchmark_Eint=-0.019 benchmark_unit=kcal/mol group=NobleGases
 He    0.098849926   0.056987419  -1.668612629
  C    1.509301511  -0.177568897   3.649693522
  C    0.351425269  -0.463689805   3.490325007
  C   -0.959977000  -0.787637939   3.309790375
  C   -2.117852537  -1.073546852   3.150107557
  H    2.530033216   0.074666858   3.790181531
  H   -3.138591982  -1.325585073   3.009339404
