19
charge=0 charge_a=0 charge_b=0 selection_a=1-1 selection_b=2-19 scaling=0.90 benchmark_Eint=-0.123 benchmark_unit=kcal/mol group=NobleGases
 He    0.074593784   3.281190675  -2.402376035
  C    0.903222356   1.226979849   0.153561081
  C   -0.618397379   1.387801239   0.171288617
  C   -1.302932202   0.321377771  -0.686507133
  C   -0.885245285  -1.088792262  -0.263622828
  C    0.636478954  -1.249659621  -0.280567292
  C    1.320905418  -0.183000432   0.577115962
  H    1.369826149   1.970616536   0.801825548
  H    1.271756256   1.420157571  -0.858458348
  H   -0.897522001   2.385399475  -0.171361807
  H   -0.975254985   1.300967921   1.202181520
  H   -1.029910080   0.475940992  -1.734889536
  H   -2.387461877   0.428031776  -0.628479455
  H   -1.351400094  -1.832033675  -0.912645887
  H   -1.254231228  -1.282889376   0.748196891
  H    0.993886428  -1.163261514  -1.311313417
  H    0.915226941  -2.247344900   0.062740707
  H    2.405436717  -0.289716039   0.519222284
  H    1.047731828  -0.337346392   1.625521988
