11
charge=0 charge_a=0 charge_b=0 selection_a=1-1 selection_b=2-11 scaling=1.25 benchmark_Eint=-0.075 benchmark_unit=kcal/mol group=NobleGases
 He    0.162012945  -1.316839064  -3.685934052
  C   -1.289572621  -0.839032220   0.162331119
  C   -0.245329585  -0.021484862   0.299071929
  C    0.107182224   0.651489500   1.535792012
  C    1.151673635   1.468827502   1.672486498
  H   -1.514892299  -1.319445470  -0.778148248
  H   -1.950713568  -1.050710042   0.992659624
  H    0.398060345   0.169678520  -0.553182364
  H   -0.536171534   0.460311847   2.388206573
  H    1.812784345   1.680490038   0.842123584
  H    1.377316215   1.949098721   2.613082863
