16
charge=0 charge_a=0 charge_b=0 selection_a=1-1 selection_b=2-16 scaling=0.85 benchmark_Eint=0.162 benchmark_unit=kcal/mol group=NobleGases
 He    0.160996024  -0.703531874  -1.666992187
  C   -0.082034249  -0.306676694   1.210792245
  C   -0.825119386   0.910120005   1.691677332
  C    1.294975861  -0.269969648   0.999387352
  C    1.984991539  -1.400743736   0.579613727
  C    1.305377573  -2.592005222   0.361855921
  C   -0.068464665  -2.641493070   0.565791248
  C   -0.752845132  -1.508650324   0.985123304
  H   -0.277803281   1.823775560   1.466400733
  H   -0.974348603   0.874496006   2.772786653
  H   -1.809679836   0.981127207   1.230899271
  H    1.832250784   0.655054210   1.162251511
  H    3.052857738  -1.349183501   0.419122617
  H    1.839290036  -3.471848902   0.032213128
  H   -0.608348312  -3.562295515   0.394248398
  H   -1.823360672  -1.555563754   1.136855269
