18
charge=0 charge_a=0 charge_b=0 selection_a=1-1 selection_b=2-18 scaling=2.00 benchmark_Eint=-0.005 benchmark_unit=kcal/mol group=NobleGases
 He   -0.040873924   0.042444354  -1.635803027
  C    0.395716494   0.526201359   5.580839132
  C    0.729871746  -0.959308290   5.761401400
  C    2.004216697  -1.295334019   4.977751338
  C    0.951504591  -1.256255866   7.249188624
  C   -0.431920889  -1.811879070   5.237620778
  H    1.207540199   1.156884431   5.945702947
  H   -0.508472404   0.793320245   6.129507149
  H    0.232437346   0.765463130   4.529246434
  H    2.848442374  -0.701552222   5.330794498
  H    1.874002732  -1.093170811   3.913857054
  H    2.265571524  -2.348540307   5.089102921
  H    1.774464091  -0.661860647   7.648402155
  H    1.191353930  -2.308720134   7.406453467
  H    0.058362791  -1.025555780   7.831440738
  H   -0.611657958  -1.620191220   4.178998470
  H   -1.353186634  -1.592478743   5.778983136
  H   -0.220067459  -2.875580531   5.354260842
