7
charge=0 charge_a=0 charge_b=0 selection_a=1-1 selection_b=2-7 scaling=0.85 benchmark_Eint=0.062 benchmark_unit=kcal/mol group=NobleGases
 He    0.098849926   0.056987419  -1.668612629
  C    1.685753812   0.121208734   1.431122543
  C    0.527877570  -0.164912174   1.271754028
  C   -0.783524699  -0.488860308   1.091219396
  C   -1.941400236  -0.774769221   0.931536578
  H    2.706485517   0.373444489   1.571610552
  H   -2.962139681  -1.026807442   0.790768425
