16
charge=0 charge_a=0 charge_b=0 selection_a=1-1 selection_b=2-16 scaling=1.50 benchmark_Eint=-0.050 benchmark_unit=kcal/mol group=NobleGases
 He    0.160996024  -0.703531874  -1.666992187
  C    0.106086895  -0.621030066   3.381431943
  C   -0.636998242   0.595766633   3.862317030
  C    1.483097005  -0.584323020   3.170027050
  C    2.173112683  -1.715097108   2.750253425
  C    1.493498717  -2.906358594   2.532495619
  C    0.119656479  -2.955846442   2.736430946
  C   -0.564723988  -1.823003696   3.155763002
  H   -0.089682137   1.509422188   3.637040431
  H   -0.786227459   0.560142634   4.943426351
  H   -1.621558692   0.666773835   3.401538969
  H    2.020371928   0.340700838   3.332891209
  H    3.240978882  -1.663536873   2.589762315
  H    2.027411180  -3.786202274   2.202852826
  H   -0.420227168  -3.876648887   2.564888096
  H   -1.635239528  -1.869917126   3.307494967
