21
charge=0 charge_a=0 charge_b=0 selection_a=1-1 selection_b=2-21 scaling=0.85 benchmark_Eint=-0.023 benchmark_unit=kcal/mol group=NobleGases
 Ne    1.156931945  -0.619617466  -3.082076904
  C   -1.048079269  -0.454973348  -0.711231101
  C   -0.223205797   0.056348355   0.489315646
  C    1.276883245  -0.151527225   0.246113721
  C   -0.497168830   1.557354664   0.647708592
  C   -0.637595785  -0.663113596   1.778934610
  C   -0.919291494  -1.939895139  -1.043110223
  H   -0.764670450   0.130742474  -1.589491865
  H   -2.099622052  -0.224272244  -0.520858659
  H    1.531951105  -1.208026552   0.174438582
  H    1.594441979   0.335117072  -0.677144709
  H    1.859833388   0.272409923   1.064617910
  H   -1.556525826   1.744833778   0.828602133
  H   -0.209126221   2.104569078  -0.251012666
  H    0.064359772   1.971009648   1.486297943
  H   -1.707091139  -0.550243668   1.963276405
  H   -0.414067572  -1.728333581   1.737040636
  H   -0.105578514  -0.249276556   2.636386305
  H    0.106152423  -2.213753702  -1.287695958
  H   -1.244271523  -2.570114735  -0.216140855
  H   -1.536889281  -2.190918179  -1.905281593
