10
charge=0 charge_a=0 charge_b=0 selection_a=1-1 selection_b=2-10 scaling=2.00 benchmark_Eint=-0.011 benchmark_unit=kcal/mol group=NobleGases
 Ne    0.765653613   0.997424820  -2.027472907
  C   -2.778454067  -2.435408695   3.017562326
  C   -1.468435316  -2.233328222   2.980659285
  C   -0.717385622  -1.290520873   3.865885389
  H   -3.264028215  -3.132273819   2.349176928
  H   -3.412336950  -1.908708995   3.720045052
  H   -0.874331121  -2.784226267   2.258525820
  H   -1.383386032  -0.778756726   4.559242292
  H   -0.190634684  -0.536590555   3.277143504
  H    0.041282194  -1.819340386   4.446879140
