21
charge=0 charge_a=0 charge_b=0 selection_a=1 selection_b=2-21 scaling=1.00 benchmark_Eint=-0.370 benchmark_unit=kcal/mol group=NobleGases
 Ne    1.156931945  -0.619617466  -3.082076904
  C   -1.228204934  -0.413279325  -0.311353747
  C   -0.403331462   0.098042378   0.889193000
  C    1.096757580  -0.109833202   0.645991075
  C   -0.677294495   1.599048687   1.047585946
  C   -0.817721450  -0.621419573   2.178811964
  C   -1.099417159  -1.898201116  -0.643232869
  H   -0.944796115   0.172436497  -1.189614511
  H   -2.279747717  -0.182578221  -0.120981305
  H    1.351825440  -1.166332529   0.574315936
  H    1.414316314   0.376811095  -0.277267355
  H    1.679707723   0.314103946   1.464495264
  H   -1.736651491   1.786527801   1.228479487
  H   -0.389251886   2.146263101   0.148864688
  H   -0.115765893   2.012703671   1.886175297
  H   -1.887216804  -0.508549645   2.363153759
  H   -0.594193237  -1.686639558   2.136917990
  H   -0.285704179  -0.207582533   3.036263659
  H   -0.073973242  -2.172059679  -0.887818604
  H   -1.424397188  -2.528420712   0.183736499
  H   -1.717014946  -2.149224156  -1.505404239
