10
charge=0 charge_a=0 charge_b=0 selection_a=1-1 selection_b=2-10 scaling=1.25 benchmark_Eint=-0.137 benchmark_unit=kcal/mol group=NobleGases
 Ne    0.765653613   0.997424820  -2.027472907
  C   -1.974157374  -1.443216923   1.229249190
  C   -0.664138623  -1.241136450   1.192346149
  C    0.086911071  -0.298329101   2.077572253
  H   -2.459731522  -2.140082047   0.560863792
  H   -2.608040257  -0.916517223   1.931731916
  H   -0.070034428  -1.792034495   0.470212684
  H   -0.579089339   0.213435046   2.770929156
  H    0.613662009   0.455601217   1.488830368
  H    0.845578887  -0.827148614   2.658566004
