21
charge=0 charge_a=0 charge_b=0 selection_a=1-1 selection_b=2-21 scaling=1.25 benchmark_Eint=-0.205 benchmark_unit=kcal/mol group=NobleGases
 Ne    1.156931945  -0.619617466  -3.082076904
  C   -1.528414376  -0.343789286   0.355108510
  C   -0.703540904   0.167532417   1.555655257
  C    0.796548138  -0.040343163   1.312453332
  C   -0.977503937   1.668538726   1.714048203
  C   -1.117930892  -0.551929534   2.845274221
  C   -1.399626601  -1.828711077   0.023229388
  H   -1.245005557   0.241926536  -0.523152254
  H   -2.579957159  -0.113088182   0.545480952
  H    1.051615998  -1.096842490   1.240778193
  H    1.114106872   0.446301134   0.389194902
  H    1.379498281   0.383593985   2.130957521
  H   -2.036860933   1.856017840   1.894941744
  H   -0.689461328   2.215753140   0.815326945
  H   -0.415975335   2.082193710   2.552637554
  H   -2.187426246  -0.439059606   3.029616016
  H   -0.894402679  -1.617149519   2.803380247
  H   -0.585913621  -0.138092494   3.702725916
  H   -0.374182684  -2.102569640  -0.221356347
  H   -1.724606630  -2.458930673   0.850198756
  H   -2.017224388  -2.079734117  -0.838941982
