21
charge=0 charge_a=0 charge_b=0 selection_a=1-1 selection_b=2-21 scaling=0.95 benchmark_Eint=-0.347 benchmark_unit=kcal/mol group=NobleGases
 Ne    1.156931945  -0.619617466  -3.082076904
  C   -1.168163046  -0.427177333  -0.444646198
  C   -0.343289574   0.084144370   0.755900549
  C    1.156799468  -0.123731210   0.512698624
  C   -0.617252607   1.585150679   0.914293495
  C   -0.757679562  -0.635317581   2.045519513
  C   -1.039375271  -1.912099124  -0.776525320
  H   -0.884754227   0.158538489  -1.322906962
  H   -2.219705829  -0.196476229  -0.254273756
  H    1.411867328  -1.180230537   0.441023485
  H    1.474358202   0.362913087  -0.410559806
  H    1.739749611   0.300205938   1.331202813
  H   -1.676609603   1.772629793   1.095187036
  H   -0.329209998   2.132365093   0.015572237
  H   -0.055724005   1.998805663   1.752882846
  H   -1.827174916  -0.522447653   2.229861308
  H   -0.534151349  -1.700537566   2.003625539
  H   -0.225662291  -0.221480541   2.902971208
  H   -0.013931354  -2.185957687  -1.021111055
  H   -1.364355300  -2.542318720   0.050444048
  H   -1.656973058  -2.163122164  -1.638696690
