16
charge=0 charge_a=0 charge_b=0 selection_a=1-1 selection_b=2-16 scaling=1.50 benchmark_Eint=-0.054 benchmark_unit=kcal/mol group=NobleGases
 Ne    1.094989438   2.464681707  -2.028649188
  C   -0.537475045  -0.767935505   1.320192723
  C   -1.140612408  -1.606784553   2.460026184
  C    0.165584107  -1.785282229   0.380370484
  C   -1.439586629  -2.955425257   1.799783447
  C   -0.209066155  -3.187990927   0.914647582
  H   -1.333332097  -0.251539080   0.783038609
  H    0.143571851  -0.001864043   1.686804553
  H   -0.403936909  -1.747442705   3.254297917
  H   -2.016953989  -1.141020151   2.909070774
  H   -0.178060637  -1.657298321  -0.645123317
  H    1.244968391  -1.643656474   0.367503012
  H   -1.608588254  -3.759011807   2.515694063
  H   -2.336864673  -2.872882926   1.181305964
  H   -0.388393766  -3.906405501   0.116169897
  H    0.603797422  -3.584461005   1.525515887
