16
charge=0 charge_a=0 charge_b=0 selection_a=1-1 selection_b=2-16 scaling=0.85 benchmark_Eint=0.053 benchmark_unit=kcal/mol group=NobleGases
 Ne    1.094989438   2.464681707  -2.028649188
  C    0.048867743   0.768717749   0.164553766
  C   -0.554269620  -0.070131299   1.304387227
  C    0.751926895  -0.248628975  -0.775268473
  C   -0.853243841  -1.418772003   0.644144490
  C    0.377276633  -1.651337673  -0.240991375
  H   -0.746989309   1.285114174  -0.372600348
  H    0.729914639   1.534789211   0.531165596
  H    0.182405879  -0.210789451   2.098658960
  H   -1.430611201   0.395633103   1.753431817
  H    0.408282151  -0.120645067  -1.800762274
  H    1.831311179  -0.107003220  -0.788135945
  H   -1.022245466  -2.222358553   1.360055106
  H   -1.750521885  -1.336229672   0.025667007
  H    0.197949022  -2.369752247  -1.039469060
  H    1.190140210  -2.047807751   0.369876930
