16
charge=0 charge_a=0 charge_b=0 selection_a=1-1 selection_b=2-16 scaling=2.00 benchmark_Eint=-0.013 benchmark_unit=kcal/mol group=NobleGases
 Ne   -0.136149517   0.576653052  -2.594895880
  C    0.161400236  -0.306333444   4.354111496
  C   -0.808910777   0.729234010   4.853982227
  C    1.504898295   0.011614174   4.156249637
  C    2.398033735  -0.931510420   3.665677150
  C    1.961851872  -2.216197608   3.364794402
  C    0.627563246  -2.547376884   3.561554055
  C   -0.261858187  -1.599578480   4.052678197
  H   -0.340706983   1.395263166   5.577646293
  H   -1.673728833   0.267062430   5.326947622
  H   -1.175870786   1.348098628   4.032505520
  H    1.854315541   1.008722448   4.390476988
  H    3.435468405  -0.664215881   3.520625826
  H    2.655861257  -2.952209188   2.984671226
  H    0.278027014  -3.545099354   3.335413866
  H   -1.299050812  -1.867485778   4.205480232
