8
charge=0 charge_a=0 charge_b=0 selection_a=1-1 selection_b=2-8 scaling=0.80 benchmark_Eint=0.410 benchmark_unit=kcal/mol group=NobleGases
 Ne    0.233167428  -0.416073303  -1.834308015
  C   -0.367146731   0.192157454   1.411577779
  C    0.250779932  -0.767093544   1.046415039
  C    1.000467059  -1.930583488   0.602417585
  H   -0.914128347   1.041204936   1.734789967
  H    2.046908233  -1.677405921   0.431358643
  H    0.593095081  -2.323557009  -0.329101937
  H    0.963866652  -2.725126482   1.347886289
