8
charge=0 charge_a=0 charge_b=0 selection_a=1-1 selection_b=2-8 scaling=1.05 benchmark_Eint=-0.253 benchmark_unit=kcal/mol group=NobleGases
 Ne    0.233167428  -0.416073303  -1.834308015
  C   -0.341919776   0.071002735   2.129245454
  C    0.276006887  -0.888248263   1.764082714
  C    1.025694014  -2.051738207   1.320085260
  H   -0.888901392   0.920050217   2.452457642
  H    2.072135188  -1.798560640   1.149026318
  H    0.618322036  -2.444711728   0.388565738
  H    0.989093607  -2.846281201   2.065553964
