8
charge=0 charge_a=0 charge_b=0 selection_a=1 selection_b=2-8 scaling=1.00 benchmark_Eint=-0.266 benchmark_unit=kcal/mol group=NobleGases
 Ne    0.233167428  -0.416073303  -1.834308015
  C   -0.346965167   0.095233679   1.985711919
  C    0.270961496  -0.864017319   1.620549179
  C    1.020648623  -2.027507263   1.176551725
  H   -0.893946783   0.944281161   2.308924107
  H    2.067089797  -1.774329696   1.005492783
  H    0.613276645  -2.420480784   0.245032203
  H    0.984048216  -2.822050257   1.922020429
