8
charge=0 charge_a=0 charge_b=0 selection_a=1-1 selection_b=2-8 scaling=0.95 benchmark_Eint=-0.250 benchmark_unit=kcal/mol group=NobleGases
 Ne    0.233167428  -0.416073303  -1.834308015
  C   -0.352010558   0.119464623   1.842178384
  C    0.265916105  -0.839786375   1.477015644
  C    1.015603232  -2.003276319   1.033018190
  H   -0.898992174   0.968512105   2.165390572
  H    2.062044406  -1.750098752   0.861959248
  H    0.608231254  -2.396249840   0.101498668
  H    0.979002825  -2.797819313   1.778486894
