8
charge=0 charge_a=0 charge_b=0 selection_a=1-1 selection_b=2-8 scaling=0.90 benchmark_Eint=-0.173 benchmark_unit=kcal/mol group=NobleGases
 Ne    0.233167428  -0.416073303  -1.834308015
  C   -0.357055949   0.143695567   1.698644849
  C    0.260870714  -0.815555431   1.333482109
  C    1.010557841  -1.979045375   0.889484655
  H   -0.904037565   0.992743049   2.021857037
  H    2.056999015  -1.725867808   0.718425713
  H    0.603185863  -2.372018896  -0.042034867
  H    0.973957434  -2.773588369   1.634953359
