16
charge=0 charge_a=0 charge_b=0 selection_a=1-1 selection_b=2-16 scaling=0.80 benchmark_Eint=0.605 benchmark_unit=kcal/mol group=NobleGases
 Ne    1.094989438   2.464681707  -2.028649188
  C    0.093971035   0.886921846   0.075658461
  C   -0.509166328   0.048072798   1.215491922
  C    0.797030187  -0.130424878  -0.864163778
  C   -0.808140549  -1.300567906   0.555249185
  C    0.422379925  -1.533133576  -0.329886680
  H   -0.701886017   1.403318271  -0.461495653
  H    0.775017931   1.652993308   0.442270291
  H    0.227509171  -0.092585354   2.009763655
  H   -1.385507909   0.513837200   1.664536512
  H    0.453385443  -0.002440970  -1.889657579
  H    1.876414471   0.011200877  -0.877031250
  H   -0.977142174  -2.104154456   1.271159801
  H   -1.705418593  -1.218025575  -0.063228298
  H    0.243052314  -2.251548150  -1.128364365
  H    1.235243502  -1.929603654   0.280981625
