18
charge=0 charge_a=0 charge_b=0 selection_a=1-1 selection_b=2-18 scaling=1.05 benchmark_Eint=-0.363 benchmark_unit=kcal/mol group=NobleGases
 Ne    0.098157794   0.265137388  -1.310714110
  C    1.892906096   1.110302061   2.634920367
  C    1.042814245  -0.119225154   2.327553022
  C   -0.452814729   0.182820263   2.284904337
  C   -1.313944004  -1.037627482   1.970387406
  C   -2.806204611  -0.721399187   1.925331800
  H    2.955174651   0.867590614   2.659874098
  H    1.627109399   1.538786694   3.602488830
  H    1.746797554   1.885703577   1.881369951
  H    1.231500722  -0.891895983   3.077588936
  H    1.349968649  -0.546223181   1.369361884
  H   -0.642625928   0.960071075   1.538472786
  H   -0.763014639   0.605558308   3.245541212
  H   -1.126028612  -1.811934617   2.718922658
  H   -1.000463090  -1.460512284   1.012405950
  H   -3.152317054  -0.326894223   2.881882633
  H   -3.397555861  -1.608399564   1.698445698
  H   -3.024869182   0.027791445   1.162885092
