8
charge=0 charge_a=0 charge_b=0 selection_a=1-1 selection_b=2-8 scaling=1.10 benchmark_Eint=-0.226 benchmark_unit=kcal/mol group=NobleGases
 Ne    0.233167428  -0.416073303  -1.834308015
  C   -0.336874385   0.046771791   2.272778989
  C    0.281052278  -0.912479207   1.907616249
  C    1.030739405  -2.075969151   1.463618795
  H   -0.883856001   0.895819273   2.595991177
  H    2.077180579  -1.822791584   1.292559853
  H    0.623367427  -2.468942672   0.532099273
  H    0.994138998  -2.870512145   2.209087499
