10
charge=0 charge_a=0 charge_b=0 selection_a=1-1 selection_b=2-10 scaling=0.95 benchmark_Eint=-0.238 benchmark_unit=kcal/mol group=NobleGases
 Ne    0.765653613   0.997424820  -2.027472907
  C   -1.652438696  -1.046340214   0.513923936
  C   -0.342419945  -0.844259741   0.477020895
  C    0.408629749   0.098547608   1.362246999
  H   -2.138012844  -1.743205338  -0.154461462
  H   -2.286321579  -0.519640514   1.216406662
  H    0.251684250  -1.395157786  -0.245112570
  H   -0.257370661   0.610311755   2.055603902
  H    0.935380687   0.852477926   0.773505114
  H    1.167297565  -0.430271905   1.943240750
