16
charge=0 charge_a=0 charge_b=0 selection_a=1-1 selection_b=2-16 scaling=0.95 benchmark_Eint=-0.290 benchmark_unit=kcal/mol group=NobleGases
 Ne    1.094989438   2.464681707  -2.028649188
  C   -0.041338840   0.532309556   0.342344375
  C   -0.644476203  -0.306539492   1.482177836
  C    0.661720312  -0.485037168  -0.597477864
  C   -0.943450424  -1.655180196   0.821935099
  C    0.287070050  -1.887745866  -0.063200766
  H   -0.837195892   1.048705981  -0.194809739
  H    0.639708056   1.298381018   0.708956205
  H    0.092199296  -0.447197644   2.276449569
  H   -1.520817784   0.159224910   1.931222426
  H    0.318075568  -0.357053260  -1.622971665
  H    1.741104596  -0.343411413  -0.610345336
  H   -1.112452049  -2.458766746   1.537845715
  H   -1.840728468  -1.572637865   0.203457616
  H    0.107742439  -2.606160440  -0.861678451
  H    1.099933627  -2.284215944   0.547667539
