16
charge=0 charge_a=0 charge_b=0 selection_a=1-1 selection_b=2-16 scaling=1.05 benchmark_Eint=-0.280 benchmark_unit=kcal/mol group=NobleGases
 Ne    1.094989438   2.464681707  -2.028649188
  C   -0.131545422   0.295901364   0.520134983
  C   -0.734682785  -0.542947684   1.659968444
  C    0.571513730  -0.721445360  -0.419687256
  C   -1.033657006  -1.891588388   0.999725707
  C    0.196863468  -2.124154058   0.114589842
  H   -0.927402474   0.812297789  -0.017019131
  H    0.549501474   1.061972826   0.886746813
  H    0.001992714  -0.683605836   2.454240177
  H   -1.611024366  -0.077183282   2.109013034
  H    0.227868986  -0.593461452  -1.445181057
  H    1.650898014  -0.579819605  -0.432554728
  H   -1.202658631  -2.695174938   1.715636323
  H   -1.930935050  -1.809046057   0.381248224
  H    0.017535857  -2.842568632  -0.683887843
  H    1.009727045  -2.520624136   0.725458147
