18
charge=0 charge_a=0 charge_b=0 selection_a=1-1 selection_b=2-18 scaling=0.90 benchmark_Eint=-0.259 benchmark_unit=kcal/mol group=NobleGases
 Ne    0.098157794   0.265137388  -1.310714110
  C    1.944805836   1.155411930   2.206893454
  C    1.094713985  -0.074115285   1.899526109
  C   -0.400914989   0.227930132   1.856877424
  C   -1.262044264  -0.992517613   1.542360493
  C   -2.754304871  -0.676289318   1.497304887
  H    3.007074391   0.912700483   2.231847185
  H    1.679009139   1.583896563   3.174461917
  H    1.798697294   1.930813446   1.453343038
  H    1.283400462  -0.846786114   2.649562023
  H    1.401868389  -0.501113312   0.941334971
  H   -0.590726188   1.005180944   1.110445873
  H   -0.711114899   0.650668177   2.817514299
  H   -1.074128872  -1.766824748   2.290895745
  H   -0.948563350  -1.415402415   0.584379037
  H   -3.100417314  -0.281784354   2.453855720
  H   -3.345656121  -1.563289695   1.270418785
  H   -2.972969442   0.072901314   0.734858179
