10
charge=0 charge_a=0 charge_b=0 selection_a=1-1 selection_b=2-10 scaling=1.05 benchmark_Eint=-0.246 benchmark_unit=kcal/mol group=NobleGases
 Ne    0.765653613   0.997424820  -2.027472907
  C   -1.759678256  -1.178632450   0.752365688
  C   -0.449659505  -0.976551977   0.715462647
  C    0.301390189  -0.033744628   1.600688751
  H   -2.245252404  -1.875497574   0.083980290
  H   -2.393561139  -0.651932750   1.454848414
  H    0.144444690  -1.527450022  -0.006670818
  H   -0.364610221   0.478019519   2.294045654
  H    0.828141127   0.720185690   1.011946866
  H    1.060058005  -0.562564141   2.181682502
