8
charge=0 charge_a=0 charge_b=0 selection_a=1-1 selection_b=2-8 scaling=1.50 benchmark_Eint=-0.056 benchmark_unit=kcal/mol group=NobleGases
 Ne    0.233167428  -0.416073303  -1.834308015
  C   -0.296511257  -0.147075760   3.421047269
  C    0.321415406  -1.106326758   3.055884529
  C    1.071102533  -2.269816702   2.611887075
  H   -0.843492873   0.701971722   3.744259457
  H    2.117543707  -2.016639135   2.440828133
  H    0.663730555  -2.662790223   1.680367553
  H    1.034502126  -3.064359696   3.357355779
