18
charge=0 charge_a=0 charge_b=0 selection_a=1-17 selection_b=18-18 scaling=1.50 benchmark_Eint=-0.167 benchmark_unit=kcal/mol group=NobleGases
  C   -1.457190062  -0.025253509  -2.283971793
  C    0.001819688  -0.012763771  -2.741267761
  C    0.713742716   1.240662827  -2.229536076
  C    0.712162118  -1.302225001  -2.309843138
  C    2.127666796  -1.464220122  -2.858177836
  H   -1.985897047   0.866446946  -2.621922337
  H   -1.520251498  -0.054409841  -1.194554203
  H   -1.986465774  -0.896755737  -2.670545222
  H    0.011473641   0.017434537  -3.836242553
  H    0.761457270   1.236596859  -1.138692479
  H    0.181592764   2.142133859  -2.534243827
  H    1.732061506   1.315979936  -2.607504295
  H    0.107065866  -2.153533606  -2.631045837
  H    0.734945624  -1.342040343  -1.217009209
  H    2.133433523  -1.405845159  -3.947980147
  H    2.548268213  -2.429425587  -2.576662455
  H    2.799712603  -0.693673050  -2.482446961
 Ar   -0.187637766  -0.144740875   3.215033316
