8
charge=0 charge_a=0 charge_b=0 selection_a=1-7 selection_b=8 scaling=1.00 benchmark_Eint=-0.332 benchmark_unit=kcal/mol group=NobleGases
  C   -1.354754535  -0.083899457   0.296991922
  C   -2.373556500   0.281939104   0.810492192
  C   -3.609720573   0.725600433   1.433582199
  H   -0.452312064  -0.406400457  -0.156834964
  H   -3.467494337   0.899727179   2.500305442
  H   -4.394897574  -0.021540860   1.316438707
  H   -3.960279623   1.655193816   0.984790018
 Ar    2.462876727  -0.333648802  -0.866363178
