11
charge=0 charge_a=0 charge_b=0 selection_a=1-10 selection_b=11-11 scaling=0.85 benchmark_Eint=0.014 benchmark_unit=kcal/mol group=NobleGases
  C   -0.846358498  -0.303339006  -1.849559010
  C    0.065490133   0.662606463  -1.962542772
  C    1.397684756   0.596801399  -1.390660690
  C    2.308206053   1.564617784  -1.498733038
  H   -1.827717148  -0.212044386  -2.290994577
  H   -0.634673736  -1.215961208  -1.307902108
  H   -0.179279494   1.566587517  -2.510193025
  H    1.642455333  -0.307395121  -0.843817160
  H    2.095808724   2.479416036  -2.036667555
  H    3.288629962   1.473443662  -1.055165564
 Ar   -0.029025090   0.225562325   1.458072694
