13
charge=0 charge_a=0 charge_b=0 selection_a=1-12 selection_b=13-13 scaling=0.95 benchmark_Eint=-1.113 benchmark_unit=kcal/mol group=NobleGases
  C   -0.798334101   1.308357821  -1.750767443
  C   -1.304435242   0.014079388  -1.728601594
  C   -0.436762006  -1.070674847  -1.681221249
  C    0.937008871  -0.861143017  -1.656006632
  C    1.443107144   0.433139863  -1.678117750
  C    0.575433757   1.517894479  -1.725496181
  H   -1.473168528   2.152014530  -1.785779744
  H   -2.372857540  -0.148824360  -1.746347178
  H   -0.830399125  -2.077187464  -1.662149285
  H    1.611763701  -1.704709952  -1.617385280
  H    2.511448117   0.596140350  -1.656633771
  H    0.968986047   2.524502308  -1.740822797
 Ar   -0.005125998   0.309935040   1.647844406
