16
charge=0 charge_a=0 charge_b=0 selection_a=1-1 selection_b=2-16 scaling=1.05 benchmark_Eint=-1.065 benchmark_unit=kcal/mol group=NobleGases
 Kr    1.269832144  -0.465816860  -2.463012008
  C    2.338225425  -0.316204805   3.141900035
  C    1.332111516   0.763052200   2.645043208
  C    2.207593219   1.395494129   1.547708910
  C    2.909880930   0.414639472   0.991078954
  C    2.514688277  -0.891013310   1.705371682
  C    1.031095013  -1.154157562   1.388024623
  C    0.329833463  -0.172399832   1.944333076
  H    1.895431542  -1.027424593   3.836368461
  H    3.254185334   0.107121598   3.549334614
  H    0.916492481   1.446280188   3.378093680
  H    2.183012612   2.436943746   1.270303502
  H    3.589676311   0.473215801   0.156767577
  H    3.188179949  -1.731072081   1.572914806
  H    0.671785884  -1.963232568   0.773281123
  H   -0.732222617   0.002885479   1.885571041
