21
charge=0 charge_a=0 charge_b=0 selection_a=1-1 selection_b=2-21 scaling=0.85 benchmark_Eint=-0.087 benchmark_unit=kcal/mol group=NobleGases
 Kr    0.081466113   0.397679769  -1.656865100
  C   -1.305828743  -1.362956981   1.496099941
  C   -0.151285356  -0.639408437   2.195361256
  C    1.180878310  -1.190791570   1.678932606
  C   -0.246915013   0.894545746   2.045267158
  C   -1.577338327   1.444511801   2.566759035
  C    0.909726283   1.617257825   2.741212997
  H   -1.185906257  -2.443334919   1.577066231
  H   -1.330542926  -1.113049122   0.433520131
  H   -2.273888609  -1.108425714   1.921772100
  H   -0.214567455  -0.861092327   3.267040725
  H    1.325238815  -0.930312775   0.628508558
  H    1.199936770  -2.278100240   1.753601547
  H    2.032475303  -0.809456782   2.237921778
  H   -0.187323413   1.117734329   0.974663559
  H   -1.717551828   1.181638642   3.617739380
  H   -2.430753698   1.063381606   2.010366508
  H   -1.597616413   2.531927726   2.494110108
  H    0.939245700   1.363881658   3.803414836
  H    0.788560782   2.697780093   2.664056313
  H    1.876151703   1.364727076   2.310599232
