21
charge=0 charge_a=0 charge_b=0 selection_a=1-1 selection_b=2-21 scaling=1.10 benchmark_Eint=-0.843 benchmark_unit=kcal/mol group=NobleGases
 Kr   -0.309510941   0.233706525  -1.685644071
  C   -0.512404754   0.588344486   2.851008765
  C    0.399394216  -0.643341923   3.038111416
  C   -0.202249888  -1.876253852   2.351828113
  C    1.757179210  -0.329623994   2.396600026
  C    0.610754083  -0.939929813   4.527970365
  C   -1.930979458   0.476151808   3.404884396
  H   -0.566654414   0.810137392   1.782625850
  H   -0.017588036   1.446905785   3.312797505
  H   -1.143347751  -2.174863156   2.811792867
  H   -0.389871877  -1.684465643   1.294826949
  H    0.480693636  -2.723798032   2.421131586
  H    2.216934932   0.543368462   2.862077360
  H    1.648887420  -0.122731541   1.331414583
  H    2.444751927  -1.169128743   2.506773547
  H    1.022362688  -0.071657699   5.044905184
  H   -0.320706603  -1.214815412   5.021215539
  H    1.308414662  -1.768032274   4.658727315
  H   -2.488126260  -0.331524506   2.931662511
  H   -1.935086300   0.298469520   4.479678130
  H   -2.482109325   1.399233214   3.225995016
