21
charge=0 charge_a=0 charge_b=0 selection_a=1-1 selection_b=2-21 scaling=2.00 benchmark_Eint=-0.051 benchmark_unit=kcal/mol group=NobleGases
 Kr    0.081466113   0.397679769  -1.656865100
  C   -1.576896100  -1.624942618   5.154377685
  C   -0.422352713  -0.901394074   5.853639000
  C    0.909810953  -1.452777207   5.337210350
  C   -0.517982370   0.632560109   5.703544902
  C   -1.848405684   1.182526164   6.225036779
  C    0.638658926   1.355272188   6.399490741
  H   -1.456973614  -2.705320556   5.235343975
  H   -1.601610283  -1.375034759   4.091797875
  H   -2.544955966  -1.370411351   5.580049844
  H   -0.485634812  -1.123077964   6.925318469
  H    1.054171458  -1.192298412   4.286786302
  H    0.928869413  -2.540085877   5.411879291
  H    1.761407946  -1.071442419   5.896199522
  H   -0.458390770   0.855748692   4.632941303
  H   -1.988619185   0.919653005   7.276017124
  H   -2.701821055   0.801395969   5.668644252
  H   -1.868683770   2.269942089   6.152387852
  H    0.668178343   1.101896021   7.461692580
  H    0.517493425   2.435794456   6.322334057
  H    1.605084346   1.102741439   5.968876976
