21
charge=0 charge_a=0 charge_b=0 selection_a=1-1 selection_b=2-21 scaling=1.50 benchmark_Eint=-0.223 benchmark_unit=kcal/mol group=NobleGases
 Kr   -0.309510941   0.233706525  -1.685644071
  C   -0.426233394   0.404084193   4.124058972
  C    0.485565576  -0.827602216   4.311161623
  C   -0.116078528  -2.060514145   3.624878320
  C    1.843350570  -0.513884287   3.669650233
  C    0.696925443  -1.124190106   5.801020572
  C   -1.844808098   0.291891515   4.677934603
  H   -0.480483054   0.625877099   3.055676057
  H    0.068583324   1.262645492   4.585847712
  H   -1.057176391  -2.359123449   4.084843074
  H   -0.303700517  -1.868725936   2.567877156
  H    0.566864996  -2.908058325   3.694181793
  H    2.303106292   0.359108169   4.135127567
  H    1.735058780  -0.306991834   2.604464790
  H    2.530923287  -1.353389036   3.779823754
  H    1.108534048  -0.255917992   6.317955391
  H   -0.234535243  -1.399075705   6.294265746
  H    1.394586022  -1.952292567   5.931777522
  H   -2.401954900  -0.515784799   4.204712718
  H   -1.848914940   0.114209227   5.752728337
  H   -2.395937965   1.214972921   4.499045223
