21
charge=0 charge_a=0 charge_b=0 selection_a=1-1 selection_b=2-21 scaling=0.90 benchmark_Eint=-0.662 benchmark_unit=kcal/mol group=NobleGases
 Kr    0.081466113   0.397679769  -1.656865100
  C   -1.317614281  -1.374347661   1.655155495
  C   -0.163070894  -0.650799117   2.354416810
  C    1.169092772  -1.202182250   1.837988160
  C   -0.258700551   0.883155066   2.204322712
  C   -1.589123865   1.433121121   2.725814589
  C    0.897940745   1.605867145   2.900268551
  H   -1.197691795  -2.454725599   1.736121785
  H   -1.342328464  -1.124439802   0.592575685
  H   -2.285674147  -1.119816394   2.080827654
  H   -0.226352993  -0.872483007   3.426096279
  H    1.313453277  -0.941703455   0.787564112
  H    1.188151232  -2.289490920   1.912657101
  H    2.020689765  -0.820847462   2.396977332
  H   -0.199108951   1.106343649   1.133719113
  H   -1.729337366   1.170247962   3.776794934
  H   -2.442539236   1.051990926   2.169422062
  H   -1.609401951   2.520537046   2.653165662
  H    0.927460162   1.352490978   3.962470390
  H    0.776775244   2.686389413   2.823111867
  H    1.864366165   1.353336396   2.469654786
