19
charge=0 charge_a=0 charge_b=0 selection_a=1-1 selection_b=2-19 scaling=0.80 benchmark_Eint=3.715 benchmark_unit=kcal/mol group=NobleGases
 Kr    0.839428791  -0.349374404  -2.134387234
  C   -1.361459691  -0.919414706   0.770128858
  C   -1.159069140   0.474409480   0.853225150
  C    0.109404865   0.990299807   0.838601839
  C    1.236236226   0.141515223   0.735740453
  C    2.558075185   0.643343244   0.695109766
  C    3.627169050  -0.203846999   0.573345331
  C    3.424780271  -1.597695036   0.490253221
  C    2.157509215  -2.115303883   0.530659509
  C    1.031617020  -1.267692904   0.651726518
  C   -0.291134416  -1.768287590   0.674145962
  H   -2.367409342  -1.314308947   0.781447324
  H   -2.011898637   1.134099593   0.927387030
  H    0.266975657   2.058743374   0.899409176
  H    2.710580909   1.712490793   0.756541149
  H    4.632027132   0.192547262   0.539361791
  H    4.276503829  -2.255884076   0.393415076
  H    1.999686900  -3.183410308   0.464684055
  H   -0.443891918  -2.837086915   0.607584341
