21
charge=0 charge_a=0 charge_b=0 selection_a=1 selection_b=2-21 scaling=1.00 benchmark_Eint=-0.964 benchmark_unit=kcal/mol group=NobleGases
 Kr   -0.309510941   0.233706525  -1.685644071
  C   -0.533947594   0.634409559   2.532746213
  C    0.377851376  -0.597276850   2.719848864
  C   -0.223792728  -1.830188779   2.033565561
  C    1.735636370  -0.283558921   2.078337474
  C    0.589211243  -0.893864740   4.209707813
  C   -1.952522298   0.522216881   3.086621844
  H   -0.588197254   0.856202465   1.464363298
  H   -0.039130876   1.492970858   2.994534953
  H   -1.164890591  -2.128798083   2.493530315
  H   -0.411414717  -1.638400570   0.976564397
  H    0.459150796  -2.677732959   2.102869034
  H    2.195392092   0.589433535   2.543814808
  H    1.627344580  -0.076666468   1.013152031
  H    2.423209087  -1.123063670   2.188510995
  H    1.000819848  -0.025592626   4.726642632
  H   -0.342249443  -1.168750339   4.702952987
  H    1.286871822  -1.721967201   4.340464763
  H   -2.509669100  -0.285459433   2.613399959
  H   -1.956629140   0.344534593   4.161415578
  H   -2.503652165   1.445298287   2.907732464
