16
charge=0 charge_a=0 charge_b=0 selection_a=1-1 selection_b=2-16 scaling=1.10 benchmark_Eint=-0.948 benchmark_unit=kcal/mol group=NobleGases
 Kr    1.269832144  -0.465816860  -2.463012008
  C    2.359522463  -0.297898086   3.313355221
  C    1.353408554   0.781358919   2.816498394
  C    2.228890257   1.413800848   1.719164096
  C    2.931177968   0.432946191   1.162534140
  C    2.535985315  -0.872706591   1.876826868
  C    1.052392051  -1.135850843   1.559479809
  C    0.351130501  -0.154093113   2.115788262
  H    1.916728580  -1.009117874   4.007823647
  H    3.275482372   0.125428317   3.720789800
  H    0.937789519   1.464586907   3.549548866
  H    2.204309650   2.455250465   1.441758688
  H    3.610973349   0.491522520   0.328222763
  H    3.209476987  -1.712765362   1.744369992
  H    0.693082922  -1.944925849   0.944736309
  H   -0.710925579   0.021192198   2.057026227
