7
charge=0 charge_a=0 charge_b=0 selection_a=1 selection_b=2-7 scaling=1.00 benchmark_Eint=-0.849 benchmark_unit=kcal/mol group=NobleGases
 Kr    0.121520090   0.143454231  -2.050215525
  C    1.295864728   0.955270955   1.895696915
  C    0.497459476   0.067660043   1.746061479
  C   -0.406630575  -0.936673613   1.570942934
  C   -1.204820052  -1.822746348   1.411371147
  H    1.999802932   1.737823454   2.027226934
  H   -1.908467909  -2.603870783   1.270180186
