21
charge=0 charge_a=0 charge_b=0 selection_a=1-1 selection_b=2-21 scaling=1.10 benchmark_Eint=-0.867 benchmark_unit=kcal/mol group=NobleGases
 Kr    0.081466113   0.397679769  -1.656865100
  C   -1.364756429  -1.419910381   2.291377711
  C   -0.210213042  -0.696361837   2.990639026
  C    1.121950624  -1.247744970   2.474210376
  C   -0.305842699   0.837592346   2.840544928
  C   -1.636266013   1.387558401   3.362036805
  C    0.850798597   1.560304425   3.536490767
  H   -1.244833943  -2.500288319   2.372344001
  H   -1.389470612  -1.170002522   1.228797901
  H   -2.332816295  -1.165379114   2.717049870
  H   -0.273495141  -0.918045727   4.062318495
  H    1.266311129  -0.987266175   1.423786328
  H    1.141009084  -2.335053640   2.548879317
  H    1.973547617  -0.866410182   3.033199548
  H   -0.246251099   1.060780929   1.769941329
  H   -1.776479514   1.124685242   4.413017150
  H   -2.489681384   1.006428206   2.805644278
  H   -1.656544099   2.474974326   3.289387878
  H    0.880318014   1.306928258   4.598692606
  H    0.729633096   2.640826693   3.459334083
  H    1.817224017   1.307773676   3.105877002
