16
charge=0 charge_a=0 charge_b=0 selection_a=1-1 selection_b=2-16 scaling=2.00 benchmark_Eint=-0.042 benchmark_unit=kcal/mol group=NobleGases
 Kr    1.269832144  -0.465816860  -2.463012008
  C    2.742869158   0.031622853   6.399548566
  C    1.736755249   1.110879858   5.902691739
  C    2.612236952   1.743321787   4.805357441
  C    3.314524663   0.762467130   4.248727485
  C    2.919332010  -0.543185652   4.963020213
  C    1.435738746  -0.806329904   4.645673154
  C    0.734477196   0.175427826   5.201981607
  H    2.300075275  -0.679596935   7.094016992
  H    3.658829067   0.454949256   6.806983145
  H    1.321136214   1.794107846   6.635742211
  H    2.587656345   2.784771404   4.527952033
  H    3.994320044   0.821043459   3.414416108
  H    3.592823682  -1.383244423   4.830563337
  H    1.076429617  -1.615404910   4.030929654
  H   -0.327578884   0.350713137   5.143219572
