16
charge=0 charge_a=0 charge_b=0 selection_a=1-1 selection_b=2-16 scaling=0.95 benchmark_Eint=-1.067 benchmark_unit=kcal/mol group=NobleGases
 Kr    1.269832144  -0.465816860  -2.463012008
  C    2.295631347  -0.352818243   2.798989663
  C    1.289517438   0.726438762   2.302132836
  C    2.164999141   1.358880691   1.204798538
  C    2.867286852   0.378026034   0.648168582
  C    2.472094199  -0.927626748   1.362461310
  C    0.988500935  -1.190771000   1.045114251
  C    0.287239385  -0.209013270   1.601422704
  H    1.852837464  -1.064038031   3.493458089
  H    3.211591256   0.070508160   3.206424242
  H    0.873898403   1.409666750   3.035183308
  H    2.140418534   2.400330308   0.927393130
  H    3.547082233   0.436602363  -0.186142795
  H    3.145585871  -1.767685519   1.230004434
  H    0.629191806  -1.999846006   0.430370751
  H   -0.774816695  -0.033727959   1.542660669
