19
charge=0 charge_a=0 charge_b=0 selection_a=1 selection_b=2-19 scaling=1.00 benchmark_Eint=-0.984 benchmark_unit=kcal/mol group=NobleGases
 Kr    0.022321243   0.270489343  -1.694680898
  C    1.369282279  -0.392786271   2.287702225
  C    0.461301281   0.643842277   2.953201100
  C   -0.971319248   0.557196383   2.422085905
  C   -1.536829326  -0.857498884   2.566190185
  C   -0.629039352  -1.894485240   1.900971331
  C    0.803278163  -1.807157219   2.432744211
  H    2.373670171  -0.342611083   2.711568041
  H    1.467229312  -0.153545167   1.225017849
  H    0.860267314   1.648303689   2.801986635
  H    0.453236082   0.470861404   4.033789992
  H   -0.979298910   0.840251330   1.365744055
  H   -1.610296956   1.273867083   2.940811022
  H   -2.541462531  -0.907764395   2.142887927
  H   -1.634076653  -1.097084120   3.629566474
  H   -0.621062477  -1.723100212   0.820862369
  H   -1.027960109  -2.898759951   2.053480409
  H    1.442654198  -2.524970881   1.916089083
  H    0.809856838  -2.088278715   3.490368838
