19
charge=0 charge_a=0 charge_b=0 selection_a=1-1 selection_b=2-19 scaling=0.90 benchmark_Eint=-1.215 benchmark_unit=kcal/mol group=NobleGases
 Kr    0.839428791  -0.349374404  -2.134387234
  C   -1.323655857  -0.946797717   1.132281133
  C   -1.121265306   0.447026469   1.215377425
  C    0.147208699   0.962916796   1.200754114
  C    1.274040060   0.114132212   1.097892728
  C    2.595879019   0.615960233   1.057262041
  C    3.664972884  -0.231230010   0.935497606
  C    3.462584105  -1.625078047   0.852405496
  C    2.195313049  -2.142686894   0.892811784
  C    1.069420854  -1.295075915   1.013878793
  C   -0.253330582  -1.795670601   1.036298237
  H   -2.329605508  -1.341691958   1.143599599
  H   -1.974094803   1.106716582   1.289539305
  H    0.304779491   2.031360363   1.261561451
  H    2.748384743   1.685107782   1.118693424
  H    4.669830966   0.165164251   0.901514066
  H    4.314307663  -2.283267087   0.755567351
  H    2.037490734  -3.210793319   0.826836330
  H   -0.406088084  -2.864469926   0.969736616
