7
charge=0 charge_a=0 charge_b=0 selection_a=1-1 selection_b=2-7 scaling=0.90 benchmark_Eint=-0.486 benchmark_unit=kcal/mol group=NobleGases
 Kr    0.121520090   0.143454231  -2.050215525
  C    1.303599044   1.014011102   1.518770060
  C    0.505193792   0.126400190   1.369134624
  C   -0.398896259  -0.877933466   1.194016079
  C   -1.197085736  -1.764006201   1.034444292
  H    2.007537248   1.796563601   1.650300079
  H   -1.900733593  -2.545130636   0.893253331
