19
charge=0 charge_a=0 charge_b=0 selection_a=1-1 selection_b=2-19 scaling=1.50 benchmark_Eint=-0.327 benchmark_unit=kcal/mol group=NobleGases
 Kr    0.839428791  -0.349374404  -2.134387234
  C   -1.096832853  -1.111095783   3.305194782
  C   -0.894442302   0.282728403   3.388291074
  C    0.374031703   0.798618730   3.373667763
  C    1.500863064  -0.050165854   3.270806377
  C    2.822702023   0.451662167   3.230175690
  C    3.891795888  -0.395528076   3.108411255
  C    3.689407109  -1.789376113   3.025319145
  C    2.422136053  -2.306984960   3.065725433
  C    1.296243858  -1.459373981   3.186792442
  C   -0.026507578  -1.959968667   3.209211886
  H   -2.102782504  -1.505990024   3.316513248
  H   -1.747271799   0.942418516   3.462452954
  H    0.531602495   1.867062297   3.434475100
  H    2.975207747   1.520809716   3.291607073
  H    4.896653970   0.000866185   3.074427715
  H    4.541130667  -2.447565153   2.928481000
  H    2.264313738  -3.375091385   2.999749979
  H   -0.179265080  -3.028767992   3.142650265
