19
charge=0 charge_a=0 charge_b=0 selection_a=1-1 selection_b=2-19 scaling=1.05 benchmark_Eint=-1.786 benchmark_unit=kcal/mol group=NobleGases
 Kr    0.839428791  -0.349374404  -2.134387234
  C   -1.266950106  -0.987872233   1.675509545
  C   -1.064559555   0.405951953   1.758605837
  C    0.203914450   0.921842280   1.743982526
  C    1.330745811   0.073057696   1.641121140
  C    2.652584770   0.574885717   1.600490453
  C    3.721678635  -0.272304526   1.478726018
  C    3.519289856  -1.666152563   1.395633908
  C    2.252018800  -2.183761410   1.436040196
  C    1.126126605  -1.336150431   1.557107205
  C   -0.196624831  -1.836745117   1.579526649
  H   -2.272899757  -1.382766474   1.686828011
  H   -1.917389052   1.065642066   1.832767717
  H    0.361485242   1.990285847   1.804789863
  H    2.805090494   1.644033266   1.661921836
  H    4.726536717   0.124089735   1.444742478
  H    4.371013414  -2.324341603   1.298795763
  H    2.094196485  -3.251867835   1.370064742
  H   -0.349382333  -2.905544442   1.512965028
