19
charge=0 charge_a=0 charge_b=0 selection_a=1-1 selection_b=2-19 scaling=2.00 benchmark_Eint=-0.060 benchmark_unit=kcal/mol group=NobleGases
 Kr    0.839428791  -0.349374404  -2.134387234
  C   -0.907813682  -1.248010837   5.115956157
  C   -0.705423131   0.145813349   5.199052449
  C    0.563050874   0.661703676   5.184429138
  C    1.689882235  -0.187080908   5.081567752
  C    3.011721194   0.314747113   5.040937065
  C    4.080815059  -0.532443130   4.919172630
  C    3.878426280  -1.926291167   4.836080520
  C    2.611155224  -2.443900014   4.876486808
  C    1.485263029  -1.596289035   4.997553817
  C    0.162511593  -2.096883721   5.019973261
  H   -1.913763333  -1.642905078   5.127274623
  H   -1.558252628   0.805503462   5.273214329
  H    0.720621666   1.730147243   5.245236475
  H    3.164226918   1.383894662   5.102368448
  H    5.085673141  -0.136048869   4.885189090
  H    4.730149838  -2.584480207   4.739242375
  H    2.453332909  -3.512006439   4.810511354
  H    0.009754091  -3.165683046   4.953411640
