16
charge=0 charge_a=0 charge_b=0 selection_a=1-1 selection_b=2-16 scaling=1.25 benchmark_Eint=-0.574 benchmark_unit=kcal/mol group=NobleGases
 Kr    1.269832144  -0.465816860  -2.463012008
  C    2.423413579  -0.242977930   3.827720778
  C    1.417299670   0.836279075   3.330863951
  C    2.292781373   1.468721004   2.233529653
  C    2.995069084   0.487866347   1.676899697
  C    2.599876431  -0.817786435   2.391192425
  C    1.116283167  -1.080930687   2.073845366
  C    0.415021617  -0.099172957   2.630153819
  H    1.980619696  -0.954197718   4.522189204
  H    3.339373488   0.180348473   4.235155357
  H    1.001680635   1.519507063   4.063914423
  H    2.268200766   2.510170621   1.956124245
  H    3.674864465   0.546442676   0.842588320
  H    3.273368103  -1.657845206   2.258735549
  H    0.756974038  -1.890005693   1.459101866
  H   -0.647034463   0.076112354   2.571391784
