21
charge=0 charge_a=0 charge_b=0 selection_a=1-1 selection_b=2-21 scaling=0.95 benchmark_Eint=-0.916 benchmark_unit=kcal/mol group=NobleGases
 Kr    0.081466113   0.397679769  -1.656865100
  C   -1.329399818  -1.385738341   1.814211049
  C   -0.174856431  -0.662189797   2.513472364
  C    1.157307235  -1.213572930   1.997043714
  C   -0.270486088   0.871764386   2.363378266
  C   -1.600909402   1.421730441   2.884870143
  C    0.886155208   1.594476465   3.059324105
  H   -1.209477332  -2.466116279   1.895177339
  H   -1.354114001  -1.135830482   0.751631239
  H   -2.297459684  -1.131207074   2.239883208
  H   -0.238138530  -0.883873687   3.585151833
  H    1.301667740  -0.953094135   0.946619666
  H    1.176365695  -2.300881600   2.071712655
  H    2.008904228  -0.832238142   2.556032886
  H   -0.210894488   1.094952969   1.292774667
  H   -1.741122903   1.158857282   3.935850488
  H   -2.454324773   1.040600246   2.328477616
  H   -1.621187488   2.509146366   2.812221216
  H    0.915674625   1.341100298   4.121525944
  H    0.764989707   2.674998733   2.982167421
  H    1.852580628   1.341945716   2.628710340
