19
charge=0 charge_a=0 charge_b=0 selection_a=1-1 selection_b=2-19 scaling=0.95 benchmark_Eint=-1.817 benchmark_unit=kcal/mol group=NobleGases
 Kr    0.839428791  -0.349374404  -2.134387234
  C   -1.304753940  -0.960489223   1.313357271
  C   -1.102363389   0.433334963   1.396453563
  C    0.166110616   0.949225290   1.381830252
  C    1.292941977   0.100440706   1.278968866
  C    2.614780936   0.602268727   1.238338179
  C    3.683874801  -0.244921516   1.116573744
  C    3.481486022  -1.638769553   1.033481634
  C    2.214214966  -2.156378400   1.073887922
  C    1.088322771  -1.308767421   1.194954931
  C   -0.234428665  -1.809362107   1.217374375
  H   -2.310703591  -1.355383464   1.324675737
  H   -1.955192886   1.093025076   1.470615443
  H    0.323681408   2.017668857   1.442637589
  H    2.767286660   1.671416276   1.299769562
  H    4.688732883   0.151472745   1.082590204
  H    4.333209580  -2.296958593   0.936643489
  H    2.056392651  -3.224484825   1.007912468
  H   -0.387186167  -2.878161432   1.150812754
