21
charge=0 charge_a=0 charge_b=0 selection_a=1-1 selection_b=2-21 scaling=1.50 benchmark_Eint=-0.236 benchmark_unit=kcal/mol group=NobleGases
 Kr    0.081466113   0.397679769  -1.656865100
  C   -1.459040727  -1.511035820   3.563822144
  C   -0.304497340  -0.787487276   4.263083459
  C    1.027666326  -1.338870409   3.746654809
  C   -0.400126997   0.746466907   4.112989361
  C   -1.730550311   1.296432962   4.634481238
  C    0.756514299   1.469178986   4.808935200
  H   -1.339118241  -2.591413758   3.644788434
  H   -1.483754910  -1.261127961   2.501242334
  H   -2.427100593  -1.256504553   3.989494303
  H   -0.367779439  -1.009171166   5.334762928
  H    1.172026831  -1.078391614   2.696230761
  H    1.046724786  -2.426179079   3.821323750
  H    1.879263319  -0.957535621   4.305643981
  H   -0.340535397   0.969655490   3.042385762
  H   -1.870763812   1.033559803   5.685461583
  H   -2.583965682   0.915302767   4.078088711
  H   -1.750828397   2.383848887   4.561832311
  H    0.786033716   1.215802819   5.871137039
  H    0.635348798   2.549701254   4.731778516
  H    1.722939719   1.216648237   4.378321435
