21
charge=0 charge_a=0 charge_b=0 selection_a=1-1 selection_b=2-21 scaling=0.85 benchmark_Eint=-0.057 benchmark_unit=kcal/mol group=NobleGases
 Kr   -0.309510941   0.233706525  -1.685644071
  C   -0.566261854   0.703507169   2.055352385
  C    0.345537116  -0.528179240   2.242455036
  C   -0.256106988  -1.761091169   1.556171733
  C    1.703322110  -0.214461311   1.600943646
  C    0.556896983  -0.824767130   3.732313985
  C   -1.984836558   0.591314491   2.609228016
  H   -0.620511514   0.925300075   0.986969470
  H   -0.071445136   1.562068468   2.517141125
  H   -1.197204851  -2.059700473   2.016136487
  H   -0.443728977  -1.569302960   0.499170569
  H    0.426836536  -2.608635349   1.625475206
  H    2.163077832   0.658531145   2.066420980
  H    1.595030320  -0.007568858   0.535758203
  H    2.390894827  -1.053966060   1.711117167
  H    0.968505588   0.043504984   4.249248804
  H   -0.374563703  -1.099652729   4.225559159
  H    1.254557562  -1.652869591   3.863070935
  H   -2.541983360  -0.216361823   2.136006131
  H   -1.988943400   0.413632203   3.684021750
  H   -2.535966425   1.514395897   2.430338636
