21
charge=0 charge_a=0 charge_b=0 selection_a=1-1 selection_b=2-21 scaling=2.00 benchmark_Eint=-0.047 benchmark_unit=kcal/mol group=NobleGases
 Kr   -0.309510941   0.233706525  -1.685644071
  C   -0.318519194   0.173758826   5.715371731
  C    0.593279776  -1.057927583   5.902474382
  C   -0.008364328  -2.290839512   5.216191079
  C    1.951064770  -0.744209654   5.260962992
  C    0.804639643  -1.354515473   7.392333331
  C   -1.737093898   0.061566148   6.269247362
  H   -0.372768854   0.395551732   4.646988816
  H    0.176297524   1.032320125   6.177160471
  H   -0.949462191  -2.589448816   5.676155833
  H   -0.195986317  -2.099051303   4.159189915
  H    0.674579196  -3.138383692   5.285494552
  H    2.410820492   0.128782802   5.726440326
  H    1.842772980  -0.537317201   4.195777549
  H    2.638637487  -1.583714403   5.371136513
  H    1.216248248  -0.486243359   7.909268150
  H   -0.126821043  -1.629401072   7.885578505
  H    1.502300222  -2.182617934   7.523090281
  H   -2.294240700  -0.746110166   5.796025477
  H   -1.741200740  -0.116116140   7.344041096
  H   -2.288223765   0.984647554   6.090357982
