7
charge=0 charge_a=0 charge_b=0 selection_a=1-1 selection_b=2-7 scaling=1.05 benchmark_Eint=-0.778 benchmark_unit=kcal/mol group=NobleGases
 Kr    0.121520090   0.143454231  -2.050215525
  C    1.291997570   0.925900881   2.084160343
  C    0.493592318   0.038289969   1.934524907
  C   -0.410497733  -0.966043687   1.759406362
  C   -1.208687210  -1.852116422   1.599834575
  H    1.995935774   1.708453380   2.215690362
  H   -1.912335067  -2.633240857   1.458643614
