16
charge=0 charge_a=0 charge_b=0 selection_a=1-1 selection_b=2-16 scaling=0.90 benchmark_Eint=-1.104 benchmark_unit=kcal/mol group=NobleGases
 Xe   -0.208066194   0.129588942  -2.113236088
  C    2.770791406   0.437753352   0.336433914
  C    2.122486787   0.291070384   1.716673358
  C    2.782996703  -0.995368687  -0.232074894
  C    1.008361153  -0.730873617   1.467648586
  C    1.633590248  -1.749622325   0.492453206
  H    2.148942111   1.082851802  -0.286992572
  H    3.763587196   0.884121366   0.372594649
  H    2.847361328  -0.112741880   2.427941202
  H    1.756779424   1.234021642   2.121638958
  H    2.659921083  -1.001517422  -1.313707238
  H    3.738655884  -1.474852682  -0.021881253
  H    0.639553123  -1.195419042   2.381035785
  H    0.160859954  -0.231463329   0.994628562
  H    0.896562943  -2.140780765  -0.206709918
  H    2.030051873  -2.603528957   1.040903058
