12
charge=0 charge_a=0 charge_b=0 selection_a=1-1 selection_b=2-12 scaling=0.90 benchmark_Eint=-1.175 benchmark_unit=kcal/mol group=NobleGases
 Xe   -0.071010287   0.068696372  -2.125634044
  C   -1.198840751   0.177761986   1.352565553
  C    0.073092388   0.969398179   1.433350547
  C    1.118418381   0.126869678   1.394656994
  C    0.627544501  -1.248430665   1.286324029
  C   -0.715319360  -1.239479497   1.259336173
  H   -1.802883693   0.461754767   0.484720804
  H   -1.836438326   0.336319363   2.228511626
  H    0.111184091   2.044029008   1.508093237
  H    2.160928897   0.403158117   1.432769649
  H    1.259856053  -2.121401563   1.234142636
  H   -1.366223939  -2.095212751   1.182401412
