5
charge=0 charge_a=0 charge_b=0 selection_a=1-1 selection_b=2-5 scaling=0.90 benchmark_Eint=-0.219 benchmark_unit=kcal/mol group=NobleGases
 Xe    0.146989690   0.226425349  -0.781429649
  C   -0.614836341  -0.875043631   2.567385518
  C   -1.457086630  -1.704758327   2.391367279
  H    0.133164014  -0.138245295   2.721005600
  H   -2.204875753  -2.441158280   2.233855899
