12
charge=0 charge_a=0 charge_b=0 selection_a=1-1 selection_b=2-12 scaling=1.50 benchmark_Eint=-0.226 benchmark_unit=kcal/mol group=NobleGases
 Xe   -0.006827108   0.040059225  -2.015959404
  C    0.851116852   0.459909248   3.741144874
  C   -0.441434770  -0.350555175   3.697959500
  C   -0.193037843  -1.845058221   3.513019568
  H    0.654057919   1.524209133   3.869547159
  H    1.420925726   0.336076033   2.819133128
  H    1.487835577   0.136664791   4.566212241
  H   -1.073377214   0.015994784   2.886304111
  H   -1.005400463  -0.186175144   4.618818358
  H    0.342611533  -2.039968989   2.582837151
  H   -1.126557172  -2.406916669   3.482886348
  H    0.410719623  -2.244975339   4.329225097
