12
charge=0 charge_a=0 charge_b=0 selection_a=1-1 selection_b=2-12 scaling=1.25 benchmark_Eint=-0.598 benchmark_unit=kcal/mol group=NobleGases
 Xe   -0.006827108   0.040059225  -2.015959404
  C    0.837520392   0.552914795   2.896762223
  C   -0.455031230  -0.257549628   2.853576849
  C   -0.206634303  -1.752052674   2.668636917
  H    0.640461459   1.617214680   3.025164508
  H    1.407329266   0.429081580   1.974750477
  H    1.474239117   0.229670338   3.721829590
  H   -1.086973674   0.109000331   2.041921460
  H   -1.018996923  -0.093169597   3.774435707
  H    0.329015073  -1.946963442   1.738454500
  H   -1.140153632  -2.313911122   2.638503697
  H    0.397123163  -2.151969792   3.484842446
