12
charge=0 charge_a=0 charge_b=0 selection_a=1-1 selection_b=2-12 scaling=1.05 benchmark_Eint=-1.608 benchmark_unit=kcal/mol group=NobleGases
 Xe   -0.071010287   0.068696372  -2.125634044
  C   -1.194209846   0.132715951   1.866748622
  C    0.077723293   0.924352144   1.947533616
  C    1.123049286   0.081823643   1.908840063
  C    0.632175406  -1.293476700   1.800507098
  C   -0.710688455  -1.284525532   1.773519242
  H   -1.798252788   0.416708732   0.998903873
  H   -1.831807421   0.291273328   2.742694695
  H    0.115814996   1.998982973   2.022276306
  H    2.165559802   0.358112082   1.946952718
  H    1.264486958  -2.166447598   1.748325705
  H   -1.361593034  -2.140258786   1.696584481
