13
charge=0 charge_a=0 charge_b=0 selection_a=1-1 selection_b=2-13 scaling=2.00 benchmark_Eint=-0.041 benchmark_unit=kcal/mol group=NobleGases
 Xe    0.067831358  -0.162184002  -1.659913391
  C    1.197670017  -4.253045274   5.040563551
  C    1.864757063  -3.115441746   5.479288513
  C    3.184337137  -2.895046592   5.102761912
  C    3.836805564  -3.812236915   4.287484809
  C    3.169708552  -4.949823027   3.848757038
  C    1.850148040  -5.170231066   4.225309562
  H    0.170451126  -4.422876197   5.330856339
  H    1.356370161  -2.400533109   6.110748701
  H    3.702158384  -2.008780007   5.441420273
  H    4.862041788  -3.639242287   3.992095841
  H    3.676140527  -5.661542777   3.212150258
  H    1.330357351  -6.053375731   3.881564201
