12
charge=0 charge_a=0 charge_b=0 selection_a=1-1 selection_b=2-12 scaling=1.25 benchmark_Eint=-0.843 benchmark_unit=kcal/mol group=NobleGases
 Xe   -0.071010287   0.068696372  -2.125634044
  C   -1.188035307   0.072654572   2.552326048
  C    0.083897832   0.864290765   2.633111042
  C    1.129223825   0.021762264   2.594417489
  C    0.638349945  -1.353538079   2.486084524
  C   -0.704513916  -1.344586911   2.459096668
  H   -1.792078249   0.356647353   1.684481299
  H   -1.825632882   0.231211949   3.428272121
  H    0.121989535   1.938921594   2.707853732
  H    2.171734341   0.298050703   2.632530144
  H    1.270661497  -2.226508977   2.433903131
  H   -1.355418495  -2.200320165   2.382161907
