18
charge=0 charge_a=0 charge_b=0 selection_a=1-1 selection_b=2-18 scaling=1.05 benchmark_Eint=-1.070 benchmark_unit=kcal/mol group=NobleGases
 Xe    0.046530588  -0.725308457  -2.239767532
  C    0.431546849  -2.199375343   2.082031435
  C    0.530500415  -0.755551028   2.588811325
  C   -0.738869006   0.011657542   2.199750527
  C    0.676838059  -0.759040440   4.114956135
  C    1.752569539  -0.075336415   1.960245789
  H   -0.431138942  -2.707309466   2.515306657
  H    1.323522886  -2.768527260   2.347362438
  H    0.326732695  -2.227672768   0.997160408
  H   -1.624839871  -0.452535527   2.635125044
  H   -0.868864152   0.031406313   1.117453381
  H   -0.694642727   1.043590684   2.550659035
  H   -0.180771938  -1.238340180   4.589051754
  H    0.749238753   0.257808630   4.503244241
  H    1.573924934  -1.299093449   4.420851340
  H    1.676151130  -0.059396935   0.872756670
  H    2.671155006  -0.601371402   2.223748425
  H    1.846298773   0.955494524   2.304573954
