13
charge=0 charge_a=0 charge_b=0 selection_a=1-1 selection_b=2-13 scaling=1.10 benchmark_Eint=-1.494 benchmark_unit=kcal/mol group=NobleGases
 Xe    0.067831358  -0.162184002  -1.659913391
  C    0.060651526  -2.456375225   2.104980166
  C    0.727738572  -1.318771697   2.543705128
  C    2.047318646  -1.098376543   2.167178527
  C    2.699787073  -2.015566866   1.351901424
  C    2.032690061  -3.153152978   0.913173653
  C    0.713129549  -3.373561017   1.289726177
  H   -0.966567365  -2.626206148   2.395272954
  H    0.219351670  -0.603863060   3.175165316
  H    2.565139893  -0.212109958   2.505836888
  H    3.725023297  -1.842572238   1.056512456
  H    2.539122036  -3.864872728   0.276566873
  H    0.193338860  -4.256705682   0.945980816
