12
charge=0 charge_a=0 charge_b=0 selection_a=1-1 selection_b=2-12 scaling=2.00 benchmark_Eint=-0.058 benchmark_unit=kcal/mol group=NobleGases
 Xe   -0.071010287   0.068696372  -2.125634044
  C   -1.164880785  -0.152575601   5.123241393
  C    0.107052354   0.639060592   5.204026387
  C    1.152378347  -0.203467909   5.165332834
  C    0.661504467  -1.578768252   5.056999869
  C   -0.681359394  -1.569817084   5.030012013
  H   -1.768923727   0.131417180   4.255396644
  H   -1.802478360   0.005981776   5.999187466
  H    0.145144057   1.713691421   5.278769077
  H    2.194888863   0.072820530   5.203445489
  H    1.293816019  -2.451739150   5.004818476
  H   -1.332263973  -2.425550338   4.953077252
