16
charge=0 charge_a=0 charge_b=0 selection_a=1-1 selection_b=2-16 scaling=0.95 benchmark_Eint=-1.544 benchmark_unit=kcal/mol group=NobleGases
 Xe   -0.208066194   0.129588942  -2.113236088
  C    2.875399192   0.406444874   0.468527145
  C    2.227094573   0.259761906   1.848766589
  C    2.887604489  -1.026677165  -0.099981663
  C    1.112968939  -0.762182095   1.599741817
  C    1.738198034  -1.780930803   0.624546437
  H    2.253549897   1.051543324  -0.154899341
  H    3.868194982   0.852812888   0.504687880
  H    2.951969114  -0.144050358   2.560034433
  H    1.861387210   1.202713164   2.253732189
  H    2.764528869  -1.032825900  -1.181614007
  H    3.843263670  -1.506161160   0.110211978
  H    0.744160909  -1.226727520   2.513129016
  H    0.265467740  -0.262771807   1.126721793
  H    1.001170729  -2.172089243  -0.074616687
  H    2.134659659  -2.634837435   1.172996289
