13
charge=0 charge_a=0 charge_b=0 selection_a=1-1 selection_b=2-13 scaling=0.90 benchmark_Eint=-0.942 benchmark_unit=kcal/mol group=NobleGases
 Xe    0.067831358  -0.162184002  -1.659913391
  C   -0.192019250  -2.057115215   1.452628302
  C    0.475067796  -0.919511687   1.891353264
  C    1.794647870  -0.699116533   1.514826663
  C    2.447116297  -1.616306856   0.699549560
  C    1.780019285  -2.753892968   0.260821789
  C    0.460458773  -2.974301007   0.637374313
  H   -1.219238141  -2.226946138   1.742921090
  H   -0.033319106  -0.204603050   2.522813452
  H    2.312469117   0.187150052   1.853485024
  H    3.472352521  -1.443312228   0.404160592
  H    2.286451260  -3.465612718  -0.375784991
  H   -0.059331916  -3.857445672   0.293628952
