16
charge=0 charge_a=0 charge_b=0 selection_a=1-1 selection_b=2-16 scaling=0.85 benchmark_Eint=-0.036 benchmark_unit=kcal/mol group=NobleGases
 Xe   -0.208066194   0.129588942  -2.113236088
  C    2.666183619   0.469061831   0.204340683
  C    2.017879000   0.322378863   1.584580127
  C    2.678388916  -0.964060208  -0.364168125
  C    0.903753366  -0.699565138   1.335555355
  C    1.528982461  -1.718313846   0.360359975
  H    2.044334324   1.114160281  -0.419085803
  H    3.658979409   0.915429845   0.240501418
  H    2.742753541  -0.081433401   2.295847971
  H    1.652171637   1.265330121   1.989545727
  H    2.555313296  -0.970208943  -1.445800469
  H    3.634048097  -1.443544203  -0.153974484
  H    0.534945336  -1.164110563   2.248942554
  H    0.056252167  -0.200154850   0.862535331
  H    0.791955156  -2.109472286  -0.338803149
  H    1.925444086  -2.572220478   0.908809827
