16
charge=0 charge_a=0 charge_b=0 selection_a=1-1 selection_b=2-16 scaling=1.05 benchmark_Eint=-1.546 benchmark_unit=kcal/mol group=NobleGases
 Xe   -0.208066194   0.129588942  -2.113236088
  C    3.084614766   0.343827916   0.732713607
  C    2.436310147   0.197144948   2.112953051
  C    3.096820063  -1.089294123   0.164204799
  C    1.322184513  -0.824799053   1.863928279
  C    1.947413608  -1.843547761   0.888732899
  H    2.462765471   0.988926366   0.109287121
  H    4.077410556   0.790195930   0.768874342
  H    3.161184688  -0.206667316   2.824220895
  H    2.070602784   1.140096206   2.517918651
  H    2.973744443  -1.095442858  -0.917427545
  H    4.052479244  -1.568778118   0.374398440
  H    0.953376483  -1.289344478   2.777315478
  H    0.474683314  -0.325388765   1.390908255
  H    1.210386303  -2.234706201   0.189569775
  H    2.343875233  -2.697454393   1.437182751
