18
charge=0 charge_a=0 charge_b=0 selection_a=1-1 selection_b=2-18 scaling=2.00 benchmark_Eint=-0.050 benchmark_unit=kcal/mol group=NobleGases
 Xe    0.046530588  -0.725308457  -2.239767532
  C    0.754286622  -2.219523507   5.302151170
  C    0.853240188  -0.775699192   5.808931060
  C   -0.416129233  -0.008490622   5.419870262
  C    0.999577832  -0.779188604   7.335075870
  C    2.075309312  -0.095484579   5.180365524
  H   -0.108399169  -2.727457630   5.735426392
  H    1.646262659  -2.788675424   5.567482173
  H    0.649472468  -2.247820932   4.217280143
  H   -1.302100098  -0.472683691   5.855244779
  H   -0.546124379   0.011258149   4.337573116
  H   -0.371902954   1.023442520   5.770778770
  H    0.141967835  -1.258488344   7.809171489
  H    1.071978526   0.237660466   7.723363976
  H    1.896664707  -1.319241613   7.640971075
  H    1.998890903  -0.079545099   4.092876405
  H    2.993894779  -0.621519566   5.443868160
  H    2.169038546   0.935346360   5.524693689
