7
charge=0 charge_a=0 charge_b=0 selection_a=1-6 selection_b=7-7 scaling=0.95 benchmark_Eint=-0.138 benchmark_unit=kcal/mol group=NobleGases
  N   -0.602371977  -0.183143821  -0.529609502
  N    0.596890954   0.491958840  -0.137652882
  H   -0.432941829  -0.896328526  -1.229628191
  H   -1.231084005   0.502557771  -0.922873471
  H    1.285538002   0.518343622  -0.880900476
  H    0.994687185  -0.008977451   0.643965641
 He   -0.118875475  -0.658991151   2.727657075
