7
charge=0 charge_a=0 charge_b=0 selection_a=1-1 selection_b=2-7 scaling=2.00 benchmark_Eint=-0.011 benchmark_unit=kcal/mol group=NobleGases
 Ne    0.951500505  -0.106653633  -1.825076446
  N   -1.687204137   0.925792136   3.566487354
  N   -2.041304886  -0.454628997   3.436852727
  H   -0.935401893   1.070816101   4.230680671
  H   -2.500529402   1.425985355   3.895790021
  H   -1.869551298  -0.978709874   4.287260680
  H   -1.476102079  -0.852879465   2.700685417
