6
charge=0 charge_a=0 charge_b=0 selection_a=1 selection_b=2-6 scaling=1.00 benchmark_Eint=-0.326 benchmark_unit=kcal/mol group=NobleGases
 Ne   -0.486267162  -1.340228064   1.239902437
  N    0.166087847   1.642960232  -0.348842445
  N    0.394753285   0.781535103  -1.044991224
  C    0.655445959  -0.202180478  -1.838869712
  H    0.393332589  -1.192835780  -1.514951539
  H    1.120971643   0.021396200  -2.781493650
