7
charge=0 charge_a=0 charge_b=0 selection_a=1-1 selection_b=2-7 scaling=1.05 benchmark_Eint=-0.236 benchmark_unit=kcal/mol group=NobleGases
 Ne    0.951500505  -0.106653633  -1.825076446
  N   -0.526497885   0.787264270   1.339539040
  N   -0.880598634  -0.593156863   1.209904413
  H    0.225304359   0.932288235   2.003732357
  H   -1.339823150   1.287457489   1.668841707
  H   -0.708845046  -1.117237740   2.060312366
  H   -0.315395827  -0.991407331   0.473737103
