10
charge=0 charge_a=0 charge_b=0 selection_a=1-1 selection_b=2-10 scaling=0.80 benchmark_Eint=1.632 benchmark_unit=kcal/mol group=NobleGases
 Ne    0.647850364   0.563545592  -2.334273631
  N   -1.430394713   0.472845871  -0.412958011
  C   -1.035360782  -0.789026069  -0.560337648
  N    0.162282988  -1.267245600  -0.233205774
  C    0.994887771  -0.365121782   0.279645826
  N    0.716081360   0.921003162   0.475093674
  C   -0.511524956   1.280768077   0.109560490
  H   -1.749071532  -1.485908189  -0.982747414
  H    1.983515270  -0.706580210   0.561559926
  H   -0.786000638   2.319384531   0.248819630
