6
charge=0 charge_a=0 charge_b=0 selection_a=1-1 selection_b=2-6 scaling=0.90 benchmark_Eint=-0.228 benchmark_unit=kcal/mol group=NobleGases
 Ne   -0.486267162  -1.340228064   1.239902437
  N    0.085950666   1.458664930  -0.140372591
  N    0.314616104   0.597239801  -0.836521370
  C    0.575308778  -0.386475780  -1.630399858
  H    0.313195408  -1.377131082  -1.306481685
  H    1.040834462  -0.162899102  -2.573023796
