10
charge=0 charge_a=0 charge_b=0 selection_a=1-1 selection_b=2-10 scaling=2.00 benchmark_Eint=-0.011 benchmark_unit=kcal/mol group=NobleGases
 Ne    0.647850364   0.563545592  -2.334273631
  N   -2.804963397  -0.388626150   3.349983625
  C   -2.409929466  -1.650498090   3.202603988
  N   -1.212285696  -2.128717621   3.529735862
  C   -0.379680913  -1.226593803   4.042587462
  N   -0.658487324   0.059531141   4.238035310
  C   -1.886093640   0.419296056   3.872502126
  H   -3.123640216  -2.347380210   2.780194222
  H    0.608946586  -1.568052231   4.324501562
  H   -2.160569322   1.457912510   4.011761266
