6
charge=0 charge_a=0 charge_b=0 selection_a=1-1 selection_b=2-6 scaling=2.00 benchmark_Eint=-0.012 benchmark_unit=kcal/mol group=NobleGases
 Ne   -0.486267162  -1.340228064   1.239902437
  N    0.967459658   3.485913252  -2.433540990
  N    1.196125096   2.624488123  -3.129689769
  C    1.456817770   1.640772542  -3.923568257
  H    1.194704400   0.650117240  -3.599650084
  H    1.922343454   1.864349220  -4.866192195
