5
charge=0 charge_a=0 charge_b=0 selection_a=1-1 selection_b=2-5 scaling=2.00 benchmark_Eint=-0.007 benchmark_unit=kcal/mol group=NobleGases
 Ne   -0.599588143   0.887146605  -2.129011453
  N    1.454961025  -1.344688918   4.273315530
  N    0.729454610  -1.840759376   3.405908268
  H    1.382773999  -1.945393718   5.108976247
  H    0.801444404  -1.240174807   2.570726250
