7
charge=0 charge_a=0 charge_b=0 selection_a=1-1 selection_b=2-7 scaling=1.25 benchmark_Eint=-0.135 benchmark_unit=kcal/mol group=NobleGases
 Ne    0.951500505  -0.106653633  -1.825076446
  N   -0.770857096   0.816428031   1.808370264
  N   -1.124957845  -0.563993102   1.678735637
  H   -0.019054852   0.961451996   2.472563581
  H   -1.584182361   1.316621250   2.137672931
  H   -0.953204257  -1.088073979   2.529143590
  H   -0.559755038  -0.962243570   0.942568327
