6
charge=0 charge_a=0 charge_b=0 selection_a=1-1 selection_b=2-6 scaling=1.50 benchmark_Eint=-0.059 benchmark_unit=kcal/mol group=NobleGases
 Ne   -0.486267162  -1.340228064   1.239902437
  N    0.566773752   2.564436742  -1.391191717
  N    0.795439190   1.703011613  -2.087340496
  C    1.056131864   0.719296032  -2.881218984
  H    0.794018494  -0.271359270  -2.557300811
  H    1.521657548   0.942872710  -3.823842922
