5
charge=0 charge_a=0 charge_b=0 selection_a=1-1 selection_b=2-5 scaling=0.80 benchmark_Eint=0.457 benchmark_unit=kcal/mol group=NobleGases
 Ne   -0.599588143   0.887146605  -2.129011453
  N    0.642376157  -0.153578015   1.406512931
  N   -0.083130258  -0.649648473   0.539105669
  H    0.570189131  -0.754282815   2.242173648
  H   -0.011140464  -0.049063904  -0.296076349
