10
charge=0 charge_a=0 charge_b=0 selection_a=1-1 selection_b=2-10 scaling=0.90 benchmark_Eint=-0.209 benchmark_unit=kcal/mol group=NobleGases
 Ne    0.647850364   0.563545592  -2.334273631
  N   -1.544942104   0.401056536  -0.099379542
  C   -1.149908173  -0.860815404  -0.246759179
  N    0.047735597  -1.339034935   0.080372695
  C    0.880340380  -0.436911117   0.593224295
  N    0.601533969   0.849213827   0.788672143
  C   -0.626072347   1.208978742   0.423138959
  H   -1.863618923  -1.557697524  -0.669168945
  H    1.868967879  -0.778369545   0.875138395
  H   -0.900548029   2.247595196   0.562398099
