10
charge=0 charge_a=0 charge_b=0 selection_a=1-1 selection_b=2-10 scaling=1.50 benchmark_Eint=-0.068 benchmark_unit=kcal/mol group=NobleGases
 Ne    0.647850364   0.563545592  -2.334273631
  N   -2.232226445  -0.029679475   1.782091276
  C   -1.837192514  -1.291551415   1.634711639
  N   -0.639548744  -1.769770946   1.961843513
  C    0.193056039  -0.867647128   2.474695113
  N   -0.085750372   0.418477816   2.670142961
  C   -1.313356688   0.778242731   2.304609777
  H   -2.550903264  -1.988433535   1.212301873
  H    1.181683538  -1.209105556   2.756609213
  H   -1.587832370   1.816859185   2.443868917
