6
charge=0 charge_a=0 charge_b=0 selection_a=1-1 selection_b=2-6 scaling=0.95 benchmark_Eint=-1.078 benchmark_unit=kcal/mol group=NobleGases
 Xe   -0.068251500   0.028156250  -2.123809295
  N    0.763612705  -0.604070877   1.430697590
  N   -0.270204624  -0.147172528   1.469046862
  C   -1.449695949   0.374403121   1.503945595
  H   -1.527041896   1.434531687   1.663085445
  H   -2.292892711  -0.278609531   1.370603263
