8
charge=0 charge_a=0 charge_b=0 selection_a=1-1 selection_b=2-8 scaling=2.00 benchmark_Eint=-0.031 benchmark_unit=kcal/mol group=NobleGases
 Xe    0.052999061  -0.003346340  -2.217721309
  C   -2.995118344  -0.132136297   4.616219739
  N   -1.604926013  -0.474919593   4.912250050
  H   -3.187282062   0.168357611   3.579313049
  H   -3.309902027   0.683776995   5.265706207
  H   -3.631309111  -0.987529268   4.840338721
  H   -0.992929583   0.307348820   4.722886629
  H   -1.290462850  -1.238322341   4.328708384
