10
charge=0 charge_a=0 charge_b=0 selection_a=1-1 selection_b=2-10 scaling=0.80 benchmark_Eint=4.633 benchmark_unit=kcal/mol group=NobleGases
 Xe    0.121678745  -0.113838442  -1.870979009
  N   -0.617438828  -1.242649862   1.105081432
  C    0.702512388  -1.086979160   1.163819550
  N    1.344230715   0.078389946   1.155920159
  C    0.551381985   1.144131311   1.081487340
  N   -0.777202395   1.115905241   1.018227492
  C   -1.304282349  -0.105524477   1.033386120
  H    1.305677105  -1.984862052   1.221325646
  H    1.027857048   2.116829568   1.069820378
  H   -2.383618612  -0.180556706   0.981343752
