6
charge=0 charge_a=0 charge_b=0 selection_a=1-1 selection_b=2-6 scaling=2.00 benchmark_Eint=-0.024 benchmark_unit=kcal/mol group=NobleGases
 Xe   -0.068251500   0.028156250  -2.123809295
  N    0.461984463  -0.762853300   5.398072694
  N   -0.571832866  -0.305954951   5.436421966
  C   -1.751324191   0.215620698   5.471320699
  H   -1.828670138   1.275749264   5.630460549
  H   -2.594520953  -0.437391954   5.337978367
