6
charge=0 charge_a=0 charge_b=0 selection_a=1-1 selection_b=2-6 scaling=0.85 benchmark_Eint=0.487 benchmark_unit=kcal/mol group=NobleGases
 Xe   -0.068251500   0.028156250  -2.123809295
  N    0.792339204  -0.588948742   1.052852342
  N   -0.241478125  -0.132050393   1.091201614
  C   -1.420969450   0.389525256   1.126100347
  H   -1.498315397   1.449653822   1.285240197
  H   -2.264166212  -0.263487396   0.992758015
