8
charge=0 charge_a=0 charge_b=0 selection_a=1-1 selection_b=2-8 scaling=0.85 benchmark_Eint=0.367 benchmark_unit=kcal/mol group=NobleGases
 Xe    0.052999061  -0.003346340  -2.217721309
  C   -1.755199879   0.025138713   0.926977439
  N   -0.365007548  -0.317644583   1.223007750
  H   -1.947363597   0.325632621  -0.109929251
  H   -2.069983562   0.841052005   1.576463907
  H   -2.391390646  -0.830254258   1.151096421
  H    0.246988882   0.464623830   1.033644329
  H   -0.050544385  -1.081047331   0.639466084
