8
charge=0 charge_a=0 charge_b=0 selection_a=1-1 selection_b=2-8 scaling=1.05 benchmark_Eint=-0.857 benchmark_unit=kcal/mol group=NobleGases
 Xe    0.052999061  -0.003346340  -2.217721309
  C   -1.970837872  -0.002213463   1.568584795
  N   -0.580645541  -0.344996759   1.864615106
  H   -2.163001590   0.298280445   0.531678105
  H   -2.285621555   0.813699829   2.218071263
  H   -2.607028639  -0.857606434   1.792703777
  H    0.031350889   0.437271654   1.675251685
  H   -0.266182378  -1.108399507   1.281073440
