6
charge=0 charge_a=0 charge_b=0 selection_a=1 selection_b=2-6 scaling=1.00 benchmark_Eint=-1.124 benchmark_unit=kcal/mol group=NobleGases
 Xe   -0.068251500   0.028156250  -2.123809295
  N    0.749249455  -0.611631945   1.619620214
  N   -0.284567874  -0.154733596   1.657969486
  C   -1.464059199   0.366842053   1.692868219
  H   -1.541405146   1.426970619   1.852008069
  H   -2.307255961  -0.286170599   1.559525887
