8
charge=0 charge_a=0 charge_b=0 selection_a=1-1 selection_b=2-8 scaling=0.85 benchmark_Eint=-0.008 benchmark_unit=kcal/mol group=NobleGases
 Xe   -0.040753748   0.054450647  -2.152249564
  N    0.272001427  -2.037434351   0.705194192
  N    0.154039815  -0.936437242   0.928094727
  N    0.159194325   0.262880411   1.172379253
  C   -1.158831958   0.911919118   1.236687008
  H   -0.980812773   1.958442306   1.456884723
  H   -1.776017060   0.482356576   2.027497434
  H   -1.686537260   0.834406425   0.284882780
