8
charge=0 charge_a=0 charge_b=0 selection_a=1-1 selection_b=2-8 scaling=2.00 benchmark_Eint=-0.042 benchmark_unit=kcal/mol group=NobleGases
 Xe   -0.040753748   0.054450647  -2.152249564
  N    0.100611017  -2.621276128   4.639149354
  N   -0.017350595  -1.520279019   4.862049889
  N   -0.012196085  -0.320961366   5.106334415
  C   -1.330222368   0.328077341   5.170642170
  H   -1.152203183   1.374600529   5.390839885
  H   -1.947407470  -0.101485201   5.961452596
  H   -1.857927670   0.250564648   4.218837942
