8
charge=0 charge_a=0 charge_b=0 selection_a=1-1 selection_b=2-8 scaling=1.25 benchmark_Eint=-0.456 benchmark_unit=kcal/mol group=NobleGases
 Xe    0.052999061  -0.003346340  -2.217721309
  C   -2.186475866  -0.029565639   2.210192152
  N   -0.796283535  -0.372348935   2.506222463
  H   -2.378639584   0.270928269   1.173285462
  H   -2.501259549   0.786347653   2.859678620
  H   -2.822666633  -0.884958610   2.434311134
  H   -0.184287105   0.409919478   2.316859042
  H   -0.481820372  -1.135751683   1.922680797
