8
charge=0 charge_a=0 charge_b=0 selection_a=1-1 selection_b=2-8 scaling=0.95 benchmark_Eint=-0.800 benchmark_unit=kcal/mol group=NobleGases
 Xe    0.052999061  -0.003346340  -2.217721309
  C   -1.863018876   0.011462625   1.247781117
  N   -0.472826545  -0.331320671   1.543811428
  H   -2.055182594   0.311956533   0.210874427
  H   -2.177802559   0.827375917   1.897267585
  H   -2.499209643  -0.843930346   1.471900099
  H    0.139169885   0.450947742   1.354448007
  H   -0.158363382  -1.094723419   0.960269762
