8
charge=0 charge_a=0 charge_b=0 selection_a=1-1 selection_b=2-8 scaling=0.95 benchmark_Eint=-1.375 benchmark_unit=kcal/mol group=NobleGases
 Xe   -0.040753748   0.054450647  -2.152249564
  N    0.257097913  -2.088203201   1.047277249
  N    0.139136301  -0.987206092   1.270177784
  N    0.144290811   0.212111561   1.514462310
  C   -1.173735472   0.861150268   1.578770065
  H   -0.995716287   1.907673456   1.798967780
  H   -1.790920574   0.431587726   2.369580491
  H   -1.701440774   0.783637575   0.626965837
