6
charge=0 charge_a=0 charge_b=0 selection_a=1-1 selection_b=2-6 scaling=1.25 benchmark_Eint=-0.450 benchmark_unit=kcal/mol group=NobleGases
 Xe   -0.068251500   0.028156250  -2.123809295
  N    0.677433207  -0.649437284   2.564233334
  N   -0.356384122  -0.192538935   2.602582606
  C   -1.535875447   0.329036714   2.637481339
  H   -1.613221394   1.389165280   2.796621189
  H   -2.379072209  -0.323975938   2.504139007
