6
charge=0 charge_a=0 charge_b=0 selection_a=1-1 selection_b=2-6 scaling=0.90 benchmark_Eint=-0.673 benchmark_unit=kcal/mol group=NobleGases
 Xe   -0.068251500   0.028156250  -2.123809295
  N    0.777975954  -0.596509810   1.241774966
  N   -0.255841375  -0.139611461   1.280124238
  C   -1.435332700   0.381964188   1.315022971
  H   -1.512678647   1.442092754   1.474162821
  H   -2.278529462  -0.271048464   1.181680639
