10
charge=0 charge_a=0 charge_b=0 selection_a=1-1 selection_b=2-10 scaling=1.05 benchmark_Eint=-1.515 benchmark_unit=kcal/mol group=NobleGases
 Xe    0.121678745  -0.113838442  -1.870979009
  N   -0.663822048  -1.209919575   2.097859956
  C    0.656129168  -1.054248873   2.156598074
  N    1.297847495   0.111120233   2.148698683
  C    0.504998765   1.176861598   2.074265864
  N   -0.823585615   1.148635528   2.011006016
  C   -1.350665569  -0.072794190   2.026164644
  H    1.259293885  -1.952131765   2.214104170
  H    0.981473828   2.149559855   2.062598902
  H   -2.430001832  -0.147826419   1.974122276
