8
charge=0 charge_a=0 charge_b=0 selection_a=1-1 selection_b=2-8 scaling=0.80 benchmark_Eint=2.171 benchmark_unit=kcal/mol group=NobleGases
 Xe   -0.040753748   0.054450647  -2.152249564
  N    0.279453184  -2.012049926   0.534152663
  N    0.161491572  -0.911052817   0.757053198
  N    0.166646082   0.288264836   1.001337724
  C   -1.151380201   0.937303543   1.065645479
  H   -0.973361016   1.983826731   1.285843194
  H   -1.768565303   0.507741001   1.856455905
  H   -1.679085503   0.859790850   0.113841251
