11
charge=0 charge_a=0 charge_b=0 selection_a=1-10 selection_b=11-11 scaling=0.80 benchmark_Eint=0.559 benchmark_unit=kcal/mol group=NobleGases
  C   -1.926581942  -1.300441307  -1.526249849
  C   -1.154340720  -0.007759270  -1.668647858
  O    0.023567322   0.004549092  -1.936728489
  C   -1.937468544   1.268671346  -1.456309092
  H   -1.265021256  -2.149587732  -1.667278725
  H   -2.732392346  -1.336152985  -2.261493328
  H   -2.394380725  -1.354572672  -0.542091029
  H   -2.349126794   1.289361435  -0.445827958
  H   -2.784242318   1.311299282  -2.143180400
  H   -1.296095948   2.131408728  -1.607727225
 Ne   -0.653773803  -0.152965864   0.956909251
