23
charge=0 charge_a=0 charge_b=0 selection_a=1-22 selection_b=23-23 scaling=0.90 benchmark_Eint=-0.285 benchmark_unit=kcal/mol group=NobleGases
  C    2.490512211  -0.450250750  -0.756038892
  C    1.177306304  -1.212573232  -0.761733066
  C    1.335869705  -2.695256911  -1.033420530
  O    0.501555090  -1.142543219   0.494101814
  O    0.194482461   0.249185104   0.764099550
  C   -0.699649426   0.711394695  -0.248439526
  C   -0.858416586   2.194096545   0.023052113
  C   -2.012766195  -0.051060266  -0.254325603
  O   -0.024008669   0.641478402  -1.504462698
  O    0.283567357  -0.750167999  -1.774652571
  H    3.140141762  -0.857402915   0.015747636
  H    2.330623111   0.603324348  -0.560135470
  H    2.974481644  -0.558911851  -1.724248773
  H    1.969642588  -3.137932316  -0.268771884
  H    1.800679759  -2.837563400  -2.006049365
  H    0.365868487  -3.185159116  -1.023780087
  H   -1.328392738   2.336801314   0.992951365
  H   -1.487511742   2.637323821  -0.745135161
  H    0.112070045   2.683113281   0.018638147
  H   -2.496316911   0.055975501   0.714064062
  H   -1.852892222  -1.104281572  -0.452138652
  H   -2.662701984   0.357275628  -1.025224375
 Ne   -1.599654259   0.703155844   3.186284013
