11
charge=0 charge_a=0 charge_b=0 selection_a=1-10 selection_b=11-11 scaling=1.50 benchmark_Eint=-0.193 benchmark_unit=kcal/mol group=NobleGases
  C   -1.952298272  -1.303325101  -1.542939080
  C   -1.166248476  -0.015035195  -1.639156344
  O    0.020656157  -0.008129070  -1.864625414
  C   -1.947400737   1.263733372  -1.436788789
  H   -1.283671374  -2.156059198  -1.609079720
  H   -2.682727328  -1.348986408  -2.353000222
  H   -2.512802207  -1.340302748  -0.608157194
  H   -2.349523295   1.291215804  -0.422558225
  H   -2.799772271   1.302226956  -2.116641637
  H   -1.305654444   2.124673948  -1.596627932
 Kr   -0.123118107  -0.433586054   3.609439136
