11
charge=0 charge_a=0 charge_b=0 selection_a=1-1 selection_b=2-11 scaling=1.10 benchmark_Eint=-1.122 benchmark_unit=kcal/mol group=NobleGases
 Xe   -0.004189438  -0.035188333  -2.025390910
  C    0.128979959   1.772775177   2.084228543
  C   -0.668823178   0.488528607   2.067420885
  O   -0.151402437  -0.585942432   2.261362998
  C   -2.149454883   0.622669555   1.791545831
  H    1.163632407   1.568218272   2.341542592
  H   -0.299918226   2.478139296   2.797575443
  H    0.083070824   2.247224197   1.102490501
  H   -2.314188573   1.167229386   0.860953945
  H   -2.622502218   1.202159605   2.586508293
  H   -2.610108510  -0.358579744   1.732483491
