5
charge=0 charge_a=0 charge_b=0 selection_a=1-1 selection_b=2-5 scaling=0.95 benchmark_Eint=-0.878 benchmark_unit=kcal/mol group=NobleGases
 Xe   -0.068814173  -0.807915494  -2.219929769
  O    0.739720983   0.189209410   1.240430406
  O   -0.075862759  -0.957162063   1.582779111
  H    0.683165684   0.167683048   0.275929664
  H    0.591636400  -1.552698457   1.944586812
