11
charge=0 charge_a=0 charge_b=0 selection_a=1 selection_b=2-11 scaling=1.00 benchmark_Eint=-1.375 benchmark_unit=kcal/mol group=NobleGases
 Xe   -0.004189438  -0.035188333  -2.025390910
  C    0.189387382   1.720377597   1.736592519
  C   -0.608415755   0.436131027   1.719784861
  O   -0.090995014  -0.638340012   1.913726974
  C   -2.089047460   0.570271975   1.443909807
  H    1.224039830   1.515820692   1.993906568
  H   -0.239510803   2.425741716   2.449939419
  H    0.143478247   2.194826617   0.754854477
  H   -2.253781150   1.114831806   0.513317921
  H   -2.562094795   1.149762025   2.238872269
  H   -2.549701087  -0.410977324   1.384847467
