11
charge=0 charge_a=0 charge_b=0 selection_a=1-1 selection_b=2-11 scaling=1.25 benchmark_Eint=-0.644 benchmark_unit=kcal/mol group=NobleGases
 Xe   -0.004189438  -0.035188333  -2.025390910
  C    0.038368824   1.851371548   2.605682579
  C   -0.759434313   0.567124978   2.588874921
  O   -0.242013572  -0.507346061   2.782817034
  C   -2.240066018   0.701265926   2.312999867
  H    1.073021272   1.646814643   2.862996628
  H   -0.390529361   2.556735667   3.319029479
  H   -0.007540311   2.325820568   1.623944537
  H   -2.404799708   1.245825757   1.382407981
  H   -2.713113353   1.280755976   3.107962329
  H   -2.700719645  -0.279983373   2.253937527
