5
charge=0 charge_a=0 charge_b=0 selection_a=1-1 selection_b=2-5 scaling=0.80 benchmark_Eint=1.445 benchmark_unit=kcal/mol group=NobleGases
 Xe   -0.068814173  -0.807915494  -2.219929769
  O    0.689547797   0.140616600   0.807552613
  O   -0.126035945  -1.005754873   1.149901318
  H    0.632992498   0.119090238  -0.156948129
  H    0.541463214  -1.601291267   1.511709019
