11
charge=0 charge_a=0 charge_b=0 selection_a=1-1 selection_b=2-11 scaling=0.95 benchmark_Eint=-1.304 benchmark_unit=kcal/mol group=NobleGases
 Xe   -0.004189438  -0.035188333  -2.025390910
  C    0.219591094   1.694178807   1.562774507
  C   -0.578212043   0.409932237   1.545966849
  O   -0.060791302  -0.664538802   1.739908962
  C   -2.058843748   0.544073185   1.270091795
  H    1.254243542   1.489621902   1.820088556
  H   -0.209307091   2.399542926   2.276121407
  H    0.173681959   2.168627827   0.581036465
  H   -2.223577438   1.088633016   0.339499909
  H   -2.531891083   1.123563235   2.065054257
  H   -2.519497375  -0.437176114   1.211029455
