11
charge=0 charge_a=0 charge_b=0 selection_a=1-1 selection_b=2-11 scaling=0.90 benchmark_Eint=-0.888 benchmark_unit=kcal/mol group=NobleGases
 Xe   -0.004189438  -0.035188333  -2.025390910
  C    0.249794805   1.667980017   1.388956495
  C   -0.548008332   0.383733447   1.372148837
  O   -0.030587591  -0.690737592   1.566090950
  C   -2.028640037   0.517874395   1.096273783
  H    1.284447253   1.463423112   1.646270544
  H   -0.179103380   2.373344136   2.102303395
  H    0.203885670   2.142429037   0.407218453
  H   -2.193373727   1.062434226   0.165681897
  H   -2.501687372   1.097364445   1.891236245
  H   -2.489293664  -0.463374904   1.037211443
