5
charge=0 charge_a=0 charge_b=0 selection_a=1-1 selection_b=2-5 scaling=1.10 benchmark_Eint=-0.825 benchmark_unit=kcal/mol group=NobleGases
 Xe   -0.068814173  -0.807915494  -2.219929769
  O    0.789894169   0.237802219   1.673308198
  O   -0.025689573  -0.908569254   2.015656903
  H    0.733338870   0.216275857   0.708807456
  H    0.641809586  -1.504105648   2.377464604
