5
charge=0 charge_a=0 charge_b=0 selection_a=1-1 selection_b=2-5 scaling=2.00 benchmark_Eint=-0.038 benchmark_unit=kcal/mol group=NobleGases
 Xe   -0.068814173  -0.807915494  -2.219929769
  O    1.090933284   0.529359076   4.270574951
  O    0.275349542  -0.617012397   4.612923656
  H    1.034377985   0.507832714   3.306074209
  H    0.942848701  -1.212548791   4.974731357
