5
charge=0 charge_a=0 charge_b=0 selection_a=1-1 selection_b=2-5 scaling=0.85 benchmark_Eint=0.096 benchmark_unit=kcal/mol group=NobleGases
 Xe   -0.068814173  -0.807915494  -2.219929769
  O    0.706272192   0.156814204   0.951845211
  O   -0.109311550  -0.989557269   1.294193916
  H    0.649716893   0.135287842  -0.012655531
  H    0.558187609  -1.585093663   1.656001617
