15
charge=0 charge_a=0 charge_b=0 selection_a=1-1 selection_b=2-15 scaling=1.50 benchmark_Eint=-0.026 benchmark_unit=kcal/mol group=NobleGases
 He    0.053712349   0.068102233  -1.615696728
  B   -0.617307773   0.002551426   3.690909619
  B   -0.392955466  -1.616411995   3.269021474
  B    0.316957671  -0.013624878   5.096788239
  B   -1.060508113  -1.132825514   4.858843432
  B    0.984483150  -0.497127541   3.506923742
  H   -1.227946807   0.864463825   3.171982357
  H   -0.795075238  -2.251301555   2.362082835
  H    0.570438848   0.831187187   5.877543149
  H   -2.078933371  -1.321619984   5.419826429
  H    1.854062328  -0.098554543   2.819633688
  H   -0.615903756  -2.310543305   4.395011878
  H    0.927047151  -1.830872662   3.375328248
  H   -0.080297908  -1.101238283   5.774224718
  H    1.462812177  -0.621433573   4.754058475
