15
charge=0 charge_a=0 charge_b=0 selection_a=1-1 selection_b=2-15 scaling=0.80 benchmark_Eint=0.231 benchmark_unit=kcal/mol group=NobleGases
 He    0.053712349   0.068102233  -1.615696728
  B   -0.544004716   0.299845874   1.427336153
  B   -0.319652409  -1.319117547   1.005448008
  B    0.390260728   0.283669570   2.833214773
  B   -0.987205056  -0.835531066   2.595269966
  B    1.057786207  -0.199833093   1.243350276
  H   -1.154643750   1.161758273   0.908408891
  H   -0.721772181  -1.954007107   0.098509369
  H    0.643741905   1.128481635   3.613969683
  H   -2.005630314  -1.024325536   3.156252963
  H    1.927365385   0.198739905   0.556060222
  H   -0.542600699  -2.013248857   2.131438412
  H    1.000350208  -1.533578214   1.111754782
  H   -0.006994851  -0.803943835   3.510651252
  H    1.536115234  -0.324139125   2.490485009
