9
charge=0 charge_a=0 charge_b=0 selection_a=1-1 selection_b=2-9 scaling=0.90 benchmark_Eint=-0.118 benchmark_unit=kcal/mol group=NobleGases
 Ne   -0.076746474  -0.096005832   2.030005620
  B    0.010284591  -0.887562074  -1.302226169
  H   -0.580729706  -1.434120625  -2.170712147
  H    0.578045449  -1.493964444  -0.458482030
  H   -0.777509579  -0.005420172  -0.737481948
  B    0.045070243   0.867755424  -1.265354532
  H    0.635690369   1.415235161  -0.397354583
  H   -0.523101573   1.473311547  -2.109612691
  H    0.833565374  -0.014406856  -1.829251981
