13
charge=0 charge_a=0 charge_b=0 selection_a=1-1 selection_b=2-13 scaling=1.25 benchmark_Eint=-0.172 benchmark_unit=kcal/mol group=NobleGases
 Ne   -0.017201224   0.132874793  -1.407695667
  B    1.729415521   0.376216232   2.672491325
  H    2.586611657   1.202062587   2.684545601
  N    0.373608319   0.705752565   2.970888839
  H    0.149378619   1.659664496   3.194911604
  B   -0.678263955  -0.258287186   2.964357329
  H   -1.801202374   0.045753125   3.216386604
  N   -0.325215622  -1.602591694   2.641812613
  H   -1.049306215  -2.299698839   2.630309326
  B    1.009669699  -2.001093991   2.333432331
  H    1.274937641  -3.130423425   2.066591897
  N    2.012555016  -0.986486909   2.358309280
  H    2.960580838  -1.242940951   2.144117072
