9
charge=0 charge_a=0 charge_b=0 selection_a=1-1 selection_b=2-9 scaling=1.50 benchmark_Eint=-0.040 benchmark_unit=kcal/mol group=NobleGases
 Ne   -0.076746474  -0.096005832   2.030005620
  B    0.070004380  -0.838317316  -3.197450739
  H   -0.521009917  -1.384875867  -4.065936717
  H    0.637765238  -1.444719686  -2.353706600
  H   -0.717789790   0.043824586  -2.632706518
  B    0.104790032   0.917000182  -3.160579102
  H    0.695410158   1.464479919  -2.292579153
  H   -0.463381784   1.522556305  -4.004837261
  H    0.893285163   0.034837902  -3.724476551
