9
charge=0 charge_a=0 charge_b=0 selection_a=1-1 selection_b=2-9 scaling=1.05 benchmark_Eint=-0.209 benchmark_unit=kcal/mol group=NobleGases
 Ne   -0.076746474  -0.096005832   2.030005620
  B    0.025214538  -0.875250884  -1.776032312
  H   -0.565799759  -1.421809435  -2.644518290
  H    0.592975396  -1.481653254  -0.932288173
  H   -0.762579632   0.006891018  -1.211288091
  B    0.060000190   0.880066614  -1.739160675
  H    0.650620316   1.427546351  -0.871160726
  H   -0.508171626   1.485622737  -2.583418834
  H    0.848495321  -0.002095666  -2.303058124
