9
charge=0 charge_a=0 charge_b=0 selection_a=1-1 selection_b=2-9 scaling=1.10 benchmark_Eint=-0.184 benchmark_unit=kcal/mol group=NobleGases
 Ne   -0.076746474  -0.096005832   2.030005620
  B    0.030191187  -0.871147154  -1.933967693
  H   -0.560823110  -1.417705705  -2.802453671
  H    0.597952045  -1.477549524  -1.090223554
  H   -0.757602983   0.010994748  -1.369223472
  B    0.064976839   0.884170344  -1.897096056
  H    0.655596965   1.431650081  -1.029096107
  H   -0.503194977   1.489726467  -2.741354215
  H    0.853471970   0.002008064  -2.460993505
