13
charge=0 charge_a=0 charge_b=0 selection_a=1-1 selection_b=2-13 scaling=0.85 benchmark_Eint=0.291 benchmark_unit=kcal/mol group=NobleGases
 Ne   -0.017201224   0.132874793  -1.407695667
  B    1.489059967   0.635843603   1.285107699
  H    2.346256103   1.461689958   1.297161975
  N    0.133252765   0.965379936   1.583505213
  H   -0.090976935   1.919291867   1.807527978
  B   -0.918619509   0.001340185   1.576973703
  H   -2.041557928   0.305380496   1.829002978
  N   -0.565571176  -1.342964323   1.254428987
  H   -1.289661769  -2.040071468   1.242925700
  B    0.769314145  -1.741466620   0.946048705
  H    1.034582087  -2.870796054   0.679208271
  N    1.772199462  -0.726859538   0.970925654
  H    2.720225284  -0.983313580   0.756733446
