15
charge=0 charge_a=0 charge_b=0 selection_a=1-1 selection_b=2-15 scaling=0.80 benchmark_Eint=1.705 benchmark_unit=kcal/mol group=NobleGases
 Kr   -0.069737954   0.410171267  -1.884813187
  B    0.425799626  -1.149990601   1.024262431
  B    0.520117196   0.510083298   1.313022767
  B   -0.545969209  -1.540517175   2.348137041
  B    1.021778717  -0.696764893   2.537147306
  B   -1.047960087  -0.333864999   1.123914157
  H    0.887987598  -1.818025317   0.172831140
  H    1.069429448   1.374077238   0.731252654
  H   -0.982377986  -2.568620772   2.722405839
  H    2.033918917  -0.945310253   3.086074567
  H   -1.946581656  -0.248952634   0.367647341
  H    0.819713725   0.627363687   2.615001660
  H   -0.741395371   0.901735442   1.546985162
  H    0.016213722  -0.920521500   3.396442602
  H   -1.545526344  -0.645683860   2.329748749
