13
charge=0 charge_a=0 charge_b=0 selection_a=1-1 selection_b=2-13 scaling=0.80 benchmark_Eint=3.608 benchmark_unit=kcal/mol group=NobleGases
 Kr    0.911147118  -0.441817935  -1.742634326
  B    0.033343523  -0.129721244   1.324193178
  H   -0.997040822   0.429244542   1.530559113
  N    0.088448530  -1.541934566   1.129276000
  H   -0.768359213  -2.065986295   1.169454524
  B    1.304900921  -2.242985024   0.875985049
  H    1.320270509  -3.422030829   0.713699032
  N    2.501778879  -1.468338471   0.823026577
  H    3.371351463  -1.939776572   0.644242834
  B    2.519003199  -0.053914199   1.008800359
  H    3.532881076   0.567350999   0.955808234
  N    1.267200526   0.583473123   1.258061790
  H    1.253618781   1.579793924   1.390508747
