15
charge=0 charge_a=0 charge_b=0 selection_a=1-1 selection_b=2-15 scaling=1.50 benchmark_Eint=-0.175 benchmark_unit=kcal/mol group=NobleGases
 Kr   -0.069737954   0.410171267  -1.884813187
  B    0.511424074  -1.840025527   3.431100479
  B    0.605741644  -0.179951628   3.719860815
  B   -0.460344761  -2.230552101   4.754975089
  B    1.107403165  -1.386799819   4.943985354
  B   -0.962335639  -1.023899925   3.530752205
  H    0.973612046  -2.508060243   2.579669188
  H    1.155053896   0.684042312   3.138090702
  H   -0.896753538  -3.258655698   5.129243887
  H    2.119543365  -1.635345179   5.492912615
  H   -1.860957208  -0.938987560   2.774485389
  H    0.905338173  -0.062671239   5.021839708
  H   -0.655770923   0.211700516   3.953823210
  H    0.101838170  -1.610556426   5.803280650
  H   -1.459901896  -1.335718786   4.736586797
