13
charge=0 charge_a=0 charge_b=0 selection_a=1-1 selection_b=2-13 scaling=2.00 benchmark_Eint=-0.030 benchmark_unit=kcal/mol group=NobleGases
 Kr    0.911147118  -0.441817935  -1.742634326
  B    0.645907900  -0.729943978   5.922970506
  H   -0.384476445  -0.170978192   6.129336441
  N    0.701012907  -2.142157300   5.728053328
  H   -0.155794836  -2.666209029   5.768231852
  B    1.917465298  -2.843207758   5.474762377
  H    1.932834886  -4.022253563   5.312476360
  N    3.114343256  -2.068561205   5.421803905
  H    3.983915840  -2.539999306   5.243020162
  B    3.131567576  -0.654136933   5.607577687
  H    4.145445453  -0.032871735   5.554585562
  N    1.879764903  -0.016749611   5.856839118
  H    1.866183158   0.979571190   5.989286075
