13
charge=0 charge_a=0 charge_b=0 selection_a=1-1 selection_b=2-13 scaling=1.05 benchmark_Eint=-1.167 benchmark_unit=kcal/mol group=NobleGases
 Kr    0.911147118  -0.441817935  -1.742634326
  B    0.160961102  -0.254767647   2.282271788
  H   -0.869423243   0.304198139   2.488637723
  N    0.216066109  -1.666980969   2.087354610
  H   -0.640741634  -2.191032698   2.127533134
  B    1.432518500  -2.368031427   1.834063659
  H    1.447888088  -3.547077232   1.671777642
  N    2.629396458  -1.593384874   1.781105187
  H    3.498969042  -2.064822975   1.602321444
  B    2.646620778  -0.178960602   1.966878969
  H    3.660498655   0.442304596   1.913886844
  N    1.394818105   0.458426720   2.216140400
  H    1.381236360   1.454747521   2.348587357
