13
charge=0 charge_a=0 charge_b=0 selection_a=1-1 selection_b=2-13 scaling=0.85 benchmark_Eint=0.725 benchmark_unit=kcal/mol group=NobleGases
 Kr    0.911147118  -0.441817935  -1.742634326
  B    0.058867039  -0.154730524   1.515808900
  H   -0.971517306   0.404235262   1.722174835
  N    0.113972046  -1.566943846   1.320891722
  H   -0.742835697  -2.090995575   1.361070246
  B    1.330424437  -2.267994304   1.067600771
  H    1.345794025  -3.447040109   0.905314754
  N    2.527302395  -1.493347751   1.014642299
  H    3.396874979  -1.964785852   0.835858556
  B    2.544526715  -0.078923479   1.200416081
  H    3.558404592   0.542341719   1.147423956
  N    1.292724042   0.558463843   1.449677512
  H    1.279142297   1.554784644   1.582124469
