13
charge=0 charge_a=0 charge_b=0 selection_a=1-1 selection_b=2-13 scaling=1.10 benchmark_Eint=-1.009 benchmark_unit=kcal/mol group=NobleGases
 Kr    0.911147118  -0.441817935  -1.742634326
  B    0.186484617  -0.279776927   2.473887510
  H   -0.843899728   0.279188859   2.680253445
  N    0.241589624  -1.691990249   2.278970332
  H   -0.615218119  -2.216041978   2.319148856
  B    1.458042015  -2.393040707   2.025679381
  H    1.473411603  -3.572086512   1.863393364
  N    2.654919973  -1.618394154   1.972720909
  H    3.524492557  -2.089832255   1.793937166
  B    2.672144293  -0.203969882   2.158494691
  H    3.686022170   0.417295316   2.105502566
  N    1.420341620   0.433417440   2.407756122
  H    1.406759875   1.429738241   2.540203079
