13
charge=0 charge_a=0 charge_b=0 selection_a=1 selection_b=2-13 scaling=1.00 benchmark_Eint=-1.253 benchmark_unit=kcal/mol group=NobleGases
 Kr    0.911147118  -0.441817935  -1.742634326
  B    0.135437586  -0.229758366   2.090656066
  H   -0.894946759   0.329207420   2.297022001
  N    0.190542593  -1.641971688   1.895738888
  H   -0.666265150  -2.166023417   1.935917412
  B    1.406994984  -2.343022146   1.642447937
  H    1.422364572  -3.522067951   1.480161920
  N    2.603872942  -1.568375593   1.589489465
  H    3.473445526  -2.039813694   1.410705722
  B    2.621097262  -0.153951321   1.775263247
  H    3.634975139   0.467313877   1.722271122
  N    1.369294589   0.483436001   2.024524678
  H    1.355712844   1.479756802   2.156971635
