13
charge=0 charge_a=0 charge_b=0 selection_a=1-1 selection_b=2-13 scaling=2.00 benchmark_Eint=-0.037 benchmark_unit=kcal/mol group=NobleGases
 Xe    0.014646577   0.097969030  -1.950859225
  B   -1.902381528  -0.219479893   5.785079213
  H   -3.057415723   0.064018168   5.739065647
  N   -1.463650671  -1.573781843   5.691641087
  H   -2.154524185  -2.295990430   5.584516273
  B   -0.087824221  -1.948349091   5.738170070
  H    0.249385455  -3.086606973   5.653108114
  N    0.866195618  -0.898170141   5.887497650
  H    1.842037288  -1.137039144   5.920082367
  B    0.497413215   0.476441243   5.986446025
  H    1.315899241   1.332273931   6.105612201
  N   -0.895459563   0.780359795   5.932663056
  H   -1.179879992   1.742239542   5.998034198
