17
charge=0 charge_a=0 charge_b=0 selection_a=1-1 selection_b=2-17 scaling=1.25 benchmark_Eint=-0.859 benchmark_unit=kcal/mol group=NobleGases
 Xe   -0.230333717  -0.069302797  -1.972194900
  B    2.018746963   0.636081556   3.344648031
  B    0.597361581  -0.331624404   3.074463747
  B    2.186886837  -0.808569484   2.417711617
  B    0.415658021   1.472046303   2.860971678
  B    3.175267027   0.496646317   1.851592847
  H    2.438911752   0.726293207   4.442667528
  H    0.101112081  -1.007057225   3.901230355
  H    2.642845488  -1.782431648   2.899436737
  H   -0.158516190   1.942061450   3.782690536
  H    4.320158711   0.248756812   2.030612074
  H    0.912271132  -1.067767029   2.034125914
  H   -0.272054708   0.337691053   2.449958896
  H    2.633669632  -0.601921752   1.233891331
  H    0.297069285   2.005774552   1.801275333
  H    2.884129292   1.328390386   1.058986295
  H    1.809291660   1.738704597   2.795953425
