17
charge=0 charge_a=0 charge_b=0 selection_a=1-1 selection_b=2-17 scaling=1.10 benchmark_Eint=-1.400 benchmark_unit=kcal/mol group=NobleGases
 Xe   -0.230333717  -0.069302797  -1.972194900
  B    1.822987811   0.597647198   2.863393172
  B    0.401602429  -0.370058762   2.593208888
  B    1.991127685  -0.847003842   1.936456758
  B    0.219898869   1.433611945   2.379716819
  B    2.979507875   0.458211959   1.370337988
  H    2.243152600   0.687858849   3.961412669
  H   -0.094647071  -1.045491583   3.419975496
  H    2.447086336  -1.820866006   2.418181878
  H   -0.354275342   1.903627092   3.301435677
  H    4.124399559   0.210322454   1.549357215
  H    0.716511980  -1.106201387   1.552871055
  H   -0.467813860   0.299256695   1.968704037
  H    2.437910480  -0.640356110   0.752636472
  H    0.101310133   1.967340194   1.320020474
  H    2.688370140   1.289956028   0.577731436
  H    1.613532508   1.700270239   2.314698566
