13
charge=0 charge_a=0 charge_b=0 selection_a=1 selection_b=2-13 scaling=1.00 benchmark_Eint=-1.550 benchmark_unit=kcal/mol group=NobleGases
 Xe    0.014646577   0.097969030  -1.950859225
  B   -1.638343257   0.121631977   1.771013395
  H   -2.793377452   0.405130038   1.724999829
  N   -1.199612400  -1.232669973   1.677575269
  H   -1.890485914  -1.954878560   1.570450455
  B    0.176214050  -1.607237221   1.724104252
  H    0.513423726  -2.745495103   1.639042296
  N    1.130233889  -0.557058271   1.873431832
  H    2.106075559  -0.795927274   1.906016549
  B    0.761451486   0.817553113   1.972380207
  H    1.579937512   1.673385801   2.091546383
  N   -0.631421292   1.121471665   1.918597238
  H   -0.915841721   2.083351412   1.983968380
