13
charge=0 charge_a=0 charge_b=0 selection_a=1-1 selection_b=2-13 scaling=0.90 benchmark_Eint=-0.704 benchmark_unit=kcal/mol group=NobleGases
 Xe    0.014646577   0.097969030  -1.950859225
  B   -1.611939430   0.155743164   1.369606813
  H   -2.766973625   0.439241225   1.323593247
  N   -1.173208573  -1.198558786   1.276168687
  H   -1.864082087  -1.920767373   1.169043873
  B    0.202617877  -1.573126034   1.322697670
  H    0.539827553  -2.711383916   1.237635714
  N    1.156637716  -0.522947084   1.472025250
  H    2.132479386  -0.761816087   1.504609967
  B    0.787855313   0.851664300   1.570973625
  H    1.606341339   1.707496988   1.690139801
  N   -0.605017465   1.155582852   1.517190656
  H   -0.889437894   2.117462599   1.582561798
