13
charge=0 charge_a=0 charge_b=0 selection_a=1-1 selection_b=2-13 scaling=0.80 benchmark_Eint=4.758 benchmark_unit=kcal/mol group=NobleGases
 Xe    0.014646577   0.097969030  -1.950859225
  B   -1.585535603   0.189854351   0.968200231
  H   -2.740569798   0.473352412   0.922186665
  N   -1.146804746  -1.164447599   0.874762105
  H   -1.837678260  -1.886656186   0.767637291
  B    0.229021704  -1.539014847   0.921291088
  H    0.566231380  -2.677272729   0.836229132
  N    1.183041543  -0.488835897   1.070618668
  H    2.158883213  -0.727704900   1.103203385
  B    0.814259140   0.885775487   1.169567043
  H    1.632745166   1.741608175   1.288733219
  N   -0.578613638   1.189694039   1.115784074
  H   -0.863034067   2.151573786   1.181155216
