13
charge=0 charge_a=0 charge_b=0 selection_a=1-1 selection_b=2-13 scaling=1.05 benchmark_Eint=-1.453 benchmark_unit=kcal/mol group=NobleGases
 Xe    0.014646577   0.097969030  -1.950859225
  B   -1.651545171   0.104576384   1.971716686
  H   -2.806579366   0.388074445   1.925703120
  N   -1.212814314  -1.249725566   1.878278560
  H   -1.903687828  -1.971934153   1.771153746
  B    0.163012136  -1.624292814   1.924807543
  H    0.500221812  -2.762550696   1.839745587
  N    1.117031975  -0.574113864   2.074135123
  H    2.092873645  -0.812982867   2.106719840
  B    0.748249572   0.800497520   2.173083498
  H    1.566735598   1.656330208   2.292249674
  N   -0.644623206   1.104416072   2.119300529
  H   -0.929043635   2.066295819   2.184671671
