13
charge=0 charge_a=0 charge_b=0 selection_a=1-1 selection_b=2-13 scaling=0.95 benchmark_Eint=-1.397 benchmark_unit=kcal/mol group=NobleGases
 Xe    0.014646577   0.097969030  -1.950859225
  B   -1.625141343   0.138687570   1.570310104
  H   -2.780175538   0.422185631   1.524296538
  N   -1.186410486  -1.215614380   1.476871978
  H   -1.877284000  -1.937822967   1.369747164
  B    0.189415964  -1.590181628   1.523400961
  H    0.526625640  -2.728439510   1.438339005
  N    1.143435803  -0.540002678   1.672728541
  H    2.119277473  -0.778871681   1.705313258
  B    0.774653400   0.834608706   1.771676916
  H    1.593139426   1.690441394   1.890843092
  N   -0.618219378   1.138527258   1.717893947
  H   -0.902639807   2.100407005   1.783265089
