17
charge=0 charge_a=0 charge_b=0 selection_a=1-1 selection_b=2-17 scaling=0.90 benchmark_Eint=-1.023 benchmark_unit=kcal/mol group=NobleGases
 Xe   -0.230333717  -0.069302797  -1.972194900
  B    1.561975607   0.546401388   2.221720028
  B    0.140590225  -0.421304572   1.951535744
  B    1.730115481  -0.898249652   1.294783614
  B   -0.041113335   1.382366135   1.738043675
  B    2.718495671   0.406966149   0.728664844
  H    1.982140396   0.636613039   3.319739525
  H   -0.355659275  -1.096737393   2.778302352
  H    2.186074132  -1.872111816   1.776508734
  H   -0.615287546   1.852381282   2.659762533
  H    3.863387355   0.159076644   0.907684071
  H    0.455499776  -1.157447197   0.911197911
  H   -0.728826064   0.248010885   1.327030893
  H    2.176898276  -0.691601920   0.110963328
  H   -0.159702071   1.916094384   0.678347330
  H    2.427357936   1.238710218  -0.063941708
  H    1.352520304   1.649024429   1.673025422
