17
charge=0 charge_a=0 charge_b=0 selection_a=1-1 selection_b=2-17 scaling=0.95 benchmark_Eint=-1.506 benchmark_unit=kcal/mol group=NobleGases
 Xe   -0.230333717  -0.069302797  -1.972194900
  B    1.627228658   0.559212840   2.382138314
  B    0.205843276  -0.408493120   2.111954030
  B    1.795368532  -0.885438200   1.455201900
  B    0.024139716   1.395177587   1.898461961
  B    2.783748722   0.419777601   0.889083130
  H    2.047393447   0.649424491   3.480157811
  H   -0.290406224  -1.083925941   2.938720638
  H    2.251327183  -1.859300364   1.936927020
  H   -0.550034495   1.865192734   2.820180819
  H    3.928640406   0.171888096   1.068102357
  H    0.520752827  -1.144635745   1.071616197
  H   -0.663573013   0.260822337   1.487449179
  H    2.242151327  -0.678790468   0.271381614
  H   -0.094449020   1.928905836   0.838765616
  H    2.492610987   1.251521670   0.096476578
  H    1.417773355   1.661835881   1.833443708
