13
charge=0 charge_a=0 charge_b=0 selection_a=1-1 selection_b=2-13 scaling=1.25 benchmark_Eint=-0.679 benchmark_unit=kcal/mol group=NobleGases
 Xe    0.014646577   0.097969030  -1.950859225
  B   -1.704352825   0.036354010   2.774529849
  H   -2.859387020   0.319852071   2.728516283
  N   -1.265621968  -1.317947940   2.681091723
  H   -1.956495482  -2.040156527   2.573966909
  B    0.110204482  -1.692515188   2.727620706
  H    0.447414158  -2.830773070   2.642558750
  N    1.064224321  -0.642336238   2.876948286
  H    2.040065991  -0.881205241   2.909533003
  B    0.695441918   0.732275146   2.975896661
  H    1.513927944   1.588107834   3.095062837
  N   -0.697430860   1.036193698   2.922113692
  H   -0.981851289   1.998073445   2.987484834
