12
charge=0 charge_a=0 charge_b=0 selection_a=1-11 selection_b=12-12 scaling=0.80 benchmark_Eint=1.355 benchmark_unit=kcal/mol group=NobleGases
  C   -1.956500468   2.295547453  -1.525091368
  C   -0.602923168   2.588293399  -1.652242115
  C    0.352808353   1.636350679  -1.972097086
  P    0.037250581  -0.043320296  -2.262229139
  C   -1.680843351  -0.077672340  -2.034100566
  C   -2.468689714   1.015773385  -1.709168815
  H   -2.638351226   3.095411842  -1.272104138
  H   -0.284992190   3.611277704  -1.491963474
  H    1.384271594   1.957333084  -2.049076702
  H   -2.168296523  -1.036878425  -2.157313759
  H   -3.535697799   0.871485203  -1.591094015
 Ne   -0.757847546   0.778715057   0.705256692
