5
charge=0 charge_a=0 charge_b=0 selection_a=1-4 selection_b=5-5 scaling=2.00 benchmark_Eint=-0.030 benchmark_unit=kcal/mol group=NobleGases
  P    1.006912963   0.737365431  -1.145519838
  P   -0.695216939  -0.100256458  -1.858439984
  H    1.412827726   1.243091071  -2.413701262
  H   -1.103902790  -0.607066390  -0.592423132
 Ar   -0.173413339  -1.259711225   5.405892950
