7
charge=0 charge_a=0 charge_b=0 selection_a=1-6 selection_b=7-7 scaling=1.25 benchmark_Eint=-0.426 benchmark_unit=kcal/mol group=NobleGases
  P   -1.538344357  -0.209374928   0.805221580
  P    0.288184922  -1.443422862   1.249932374
  H   -2.364664887  -1.349909535   0.632675273
  H   -1.275909644  -0.113066140  -0.585263741
  H   -0.172067074  -1.803569180   2.542915028
  H    1.042641912  -0.353763281   1.754866609
 Ar    1.928257077   2.270265955  -1.145021266
