5
charge=0 charge_a=0 charge_b=0 selection_a=1-1 selection_b=2-5 scaling=1.10 benchmark_Eint=-0.661 benchmark_unit=kcal/mol group=NobleGases
 Xe    0.140954691   0.499643615  -0.485989880
  P   -0.679225043  -0.712039126   3.690123951
  H    0.518607241   0.040045658   3.606388058
  H   -1.495355514   0.383710268   3.314965675
  H   -0.838809872  -0.470776150   5.078144745
