12
charge=0 charge_a=0 charge_b=0 selection_a=1-1 selection_b=2-12 scaling=0.90 benchmark_Eint=-1.020 benchmark_unit=kcal/mol group=NobleGases
 Xe   -0.191052592   0.443254840  -1.794828018
  C   -1.459594278   2.063047382   1.219408175
  C   -2.216250230   0.896542544   1.242163020
  C   -1.682851643  -0.348284213   1.537624369
  P   -0.021563176  -0.662536566   1.919629699
  C    0.627260690   0.941296611   1.812987919
  C   -0.096628334   2.079769143   1.494774355
  H   -1.950630995   2.994722826   0.975617399
  H   -3.272560855   0.969165297   1.013996339
  H   -2.349127046  -1.201993585   1.528216875
  H    1.686659639   1.050903055   2.009192260
  H    0.420384663   3.030641319   1.454033007
