12
charge=0 charge_a=0 charge_b=0 selection_a=1-1 selection_b=2-12 scaling=0.85 benchmark_Eint=0.943 benchmark_unit=kcal/mol group=NobleGases
 Xe   -0.191052592   0.443254840  -1.794828018
  C   -1.431787746   2.056101626   1.021119361
  C   -2.188443698   0.889596788   1.043874206
  C   -1.655045111  -0.355229969   1.339335555
  P    0.006243356  -0.669482322   1.721340885
  C    0.655067222   0.934350855   1.614699105
  C   -0.068821802   2.072823387   1.296485541
  H   -1.922824463   2.987777070   0.777328585
  H   -3.244754323   0.962219541   0.815707525
  H   -2.321320514  -1.208939341   1.329928061
  H    1.714466171   1.043957299   1.810903446
  H    0.448191195   3.023695563   1.255744193
