12
charge=0 charge_a=0 charge_b=0 selection_a=1-1 selection_b=2-12 scaling=1.05 benchmark_Eint=-1.809 benchmark_unit=kcal/mol group=NobleGases
 Xe   -0.191052592   0.443254840  -1.794828018
  C   -1.543013874   2.083884650   1.814274620
  C   -2.299669826   0.917379812   1.837029465
  C   -1.766271239  -0.327446945   2.132490814
  P   -0.104982772  -0.641699298   2.514496144
  C    0.543841094   0.962133879   2.407854364
  C   -0.180047930   2.100606411   2.089640800
  H   -2.034050591   3.015560094   1.570483844
  H   -3.355980451   0.990002565   1.608862784
  H   -2.432546642  -1.181156317   2.123083320
  H    1.603240043   1.071740323   2.604058705
  H    0.336965067   3.051478587   2.048899452
