5
charge=0 charge_a=0 charge_b=0 selection_a=1-1 selection_b=2-5 scaling=0.80 benchmark_Eint=2.392 benchmark_unit=kcal/mol group=NobleGases
 Xe    0.140954691   0.499643615  -0.485989880
  P   -0.471219323  -0.418091929   2.615405177
  H    0.726612961   0.333992855   2.531669284
  H   -1.287349794   0.677657465   2.240246901
  H   -0.630804152  -0.176828953   4.003425971
