7
charge=0 charge_a=0 charge_b=0 selection_a=1-6 selection_b=7-7 scaling=1.10 benchmark_Eint=-0.059 benchmark_unit=kcal/mol group=NobleGases
  S    0.522274231  -1.596217735  -1.036927156
  S   -1.166556762  -1.706545825   0.165569692
  S   -0.677721246  -0.470053787   1.760055904
  S   -0.824953909   1.428281254   0.932477952
  S    0.863865884   1.538314922  -0.270028918
  S    0.374762488   0.302061673  -1.864585979
 He    4.514568565   2.588242571   1.456216946
