4
charge=0 charge_a=0 charge_b=0 selection_a=1-3 selection_b=4-4 scaling=0.85 benchmark_Eint=0.075 benchmark_unit=kcal/mol group=NobleGases
  S    0.054740052   0.047202003  -2.255411650
  C   -1.434496630   0.002145546  -1.820737483
  S   -2.923268413  -0.043052580  -1.384487304
 He   -0.600808826  -0.283121803   0.932412634
