13
charge=0 charge_a=0 charge_b=0 selection_a=1-12 selection_b=13-13 scaling=1.10 benchmark_Eint=-0.317 benchmark_unit=kcal/mol group=NobleGases
  S    0.712918746  -2.050720358  -0.336802784
  C   -0.905941344  -1.495406491  -0.938595053
  S   -1.612335150  -0.040087470  -0.117619081
  C   -0.379728400   1.189145245  -0.628027214
  S    1.301579749   0.954221930   0.011312875
  C    1.697922462  -0.607000546  -0.823239314
  H   -1.596918259  -2.314190014  -0.759118664
  H   -0.854399040  -1.318886575  -2.012522194
  H   -0.723000720   2.145289956  -0.243983773
  H   -0.351096961   1.246182154  -1.715672496
  H    2.727959239  -0.838474081  -0.567256852
  H    1.634969771  -0.469857712  -1.902304832
 Ne   -0.996369508   2.624602045   2.775719495
