11
charge=0 charge_a=0 charge_b=0 selection_a=1-10 selection_b=11-11 scaling=2.00 benchmark_Eint=-0.031 benchmark_unit=kcal/mol group=NobleGases
  C    0.864020566   0.836136619  -1.434496620
  S   -0.158054440  -0.196110972  -0.336137690
  S   -1.430854930  -1.143229877  -1.631240231
  C   -2.783924881   0.057231895  -1.842317299
  H    1.598709667   1.324761459  -0.796334872
  H    0.261807526   1.593027223  -1.929373636
  H    1.372610877   0.218212012  -2.168527716
  H   -3.520124265  -0.424315396  -2.484776764
  H   -2.429241482   0.964144598  -2.324242757
  H   -3.235629638   0.290936601  -0.882773244
 Ar    4.415809355   1.742605001   4.461886808
