4
charge=0 charge_a=0 charge_b=0 selection_a=1-3 selection_b=4-4 scaling=0.85 benchmark_Eint=0.324 benchmark_unit=kcal/mol group=NobleGases
  S    0.069692762   0.050369511  -2.197166167
  C   -1.422612211  -0.003152529  -1.774914145
  S   -2.913362314  -0.057352029  -1.347295357
 Ar   -0.556947755  -0.381899015   1.214862278
