11
charge=0 charge_a=0 charge_b=0 selection_a=1-10 selection_b=11-11 scaling=0.90 benchmark_Eint=-0.928 benchmark_unit=kcal/mol group=NobleGases
  C   -2.339532289   1.228825220  -1.678940244
  C   -1.554813239  -0.023257042  -1.930491927
  S    0.023563741  -0.003822753  -2.315093243
  C   -2.336158135  -1.294968709  -1.792495114
  H   -1.727384333   2.116893317  -1.791437003
  H   -2.761646309   1.204314416  -0.671053574
  H   -3.187438756   1.281501130  -2.366750385
  H   -3.185221013  -1.287141994  -2.480850565
  H   -2.756446728  -1.363136271  -0.785850579
  H   -1.722094967  -2.167620848  -1.985997875
 Kr   -0.932903931  -0.169775082   1.425078352
