10
charge=0 charge_a=0 charge_b=0 selection_a=1-9 selection_b=10-10 scaling=1.25 benchmark_Eint=-0.609 benchmark_unit=kcal/mol group=NobleGases
  C   -1.133467694   2.156091993  -1.576472668
  C   -2.156377735   1.169830853  -1.624932278
  C   -1.678199771  -0.064552593  -1.956173612
  S    0.019834543  -0.033710609  -2.210881002
  C    0.098030037   1.648032666  -1.872033342
  H   -1.305095906   3.192429923  -1.331217049
  H   -3.196808030   1.368520484  -1.420897203
  H   -2.225950243  -0.984362805  -2.061707266
  H    1.040728735   2.165078689  -1.906771204
 Kr   -0.346943215   0.113746209   2.675240277
