11
charge=0 charge_a=0 charge_b=0 selection_a=1-1 selection_b=2-11 scaling=0.90 benchmark_Eint=-1.125 benchmark_unit=kcal/mol group=NobleGases
 Xe    2.506703664   1.011462334  -0.587155248
  C   -0.124050346  -1.971002916   3.162645884
  S    1.082491550  -1.034400835   2.171031620
  S    0.830166661   0.891697071   2.818783668
  C   -0.539220397   1.503341755   1.787196220
  H    0.006530334  -3.017593143   2.890166477
  H   -1.140494262  -1.666053986   2.929551916
  H    0.075356589  -1.843268040   4.222445372
  H   -0.681902505   2.548286412   2.059855499
  H   -1.454623614   0.953763952   1.987999527
  H   -0.279363020   1.434577907   0.734982143
