10
charge=0 charge_a=0 charge_b=0 selection_a=1-1 selection_b=2-10 scaling=0.90 benchmark_Eint=-1.011 benchmark_unit=kcal/mol group=NobleGases
 Xe   -0.244060010   0.126599898  -1.858867545
  C   -2.100274473  -0.135621255   1.250001323
  C   -1.540897337   1.166195200   1.367068845
  C   -0.203586608   1.138968096   1.637163687
  S    0.382624032  -0.471137428   1.750256438
  C   -1.174884297  -1.121487756   1.433897201
  H   -3.139694620  -0.329156221   1.036220083
  H   -2.105212281   2.078343020   1.252672445
  H    0.465468156   1.970496077   1.771752243
  H   -1.320849652  -2.186661879   1.398026953
