11
charge=0 charge_a=0 charge_b=0 selection_a=1-1 selection_b=2-11 scaling=0.95 benchmark_Eint=-1.466 benchmark_unit=kcal/mol group=NobleGases
 Xe    0.293870577  -1.063445099  -1.449412731
  C   -2.226484247  -0.909555146   1.610045338
  C   -1.527970867   0.404553818   1.418445274
  S   -2.380729016   1.450607358   0.269315448
  C   -0.395928477   0.733428223   2.032908232
  H   -2.299071600  -1.451692130   0.666012419
  H   -3.242505826  -0.762674856   1.979172595
  H   -1.683955503  -1.526529455   2.322237977
  H    0.070151276   0.039019373   2.717388679
  H   -1.527471626   2.484553408   0.305758805
  H    0.097201151   1.681692695   1.878844232
