11
charge=0 charge_a=0 charge_b=0 selection_a=1-1 selection_b=2-11 scaling=1.10 benchmark_Eint=-1.320 benchmark_unit=kcal/mol group=NobleGases
 Xe    0.293870577  -1.063445099  -1.449412731
  C   -2.525883228  -0.663784127   1.967189608
  C   -1.827369848   0.650324837   1.775589544
  S   -2.680127997   1.696378377   0.626459718
  C   -0.695327458   0.979199242   2.390052502
  H   -2.598470581  -1.205921111   1.023156689
  H   -3.541904807  -0.516903837   2.336316865
  H   -1.983354484  -1.280758436   2.679382247
  H   -0.229247705   0.284790392   3.074532949
  H   -1.826870607   2.730324427   0.662903075
  H   -0.202197830   1.927463714   2.235988502
