11
charge=0 charge_a=0 charge_b=0 selection_a=1-1 selection_b=2-11 scaling=1.05 benchmark_Eint=-1.485 benchmark_unit=kcal/mol group=NobleGases
 Xe    0.293870577  -1.063445099  -1.449412731
  C   -2.426083567  -0.745707800   1.848141518
  C   -1.727570187   0.568401164   1.656541454
  S   -2.580328336   1.614454704   0.507411628
  C   -0.595527797   0.897275569   2.271004412
  H   -2.498670920  -1.287844784   0.904108599
  H   -3.442105146  -0.598827510   2.217268775
  H   -1.883554823  -1.362682109   2.560334157
  H   -0.129448044   0.202866719   2.955484859
  H   -1.727070946   2.648400754   0.543854985
  H   -0.102398169   1.845540041   2.116940412
