10
charge=0 charge_a=0 charge_b=0 selection_a=1 selection_b=2-10 scaling=1.00 benchmark_Eint=-1.879 benchmark_unit=kcal/mol group=NobleGases
 Xe   -0.244060010   0.126599898  -1.858867545
  C   -2.146862365  -0.151725986   1.646642372
  C   -1.587485229   1.150090469   1.763709894
  C   -0.250174500   1.122863365   2.033804736
  S    0.336036140  -0.487242159   2.146897487
  C   -1.221472189  -1.137592487   1.830538250
  H   -3.186282512  -0.345260952   1.432861132
  H   -2.151800173   2.062238289   1.649313494
  H    0.418880264   1.954391346   2.168393292
  H   -1.367437544  -2.202766610   1.794668002
