11
charge=0 charge_a=0 charge_b=0 selection_a=1-1 selection_b=2-11 scaling=2.00 benchmark_Eint=-0.064 benchmark_unit=kcal/mol group=NobleGases
 Xe    2.506703664   1.011462334  -0.587155248
  C   -2.042772128  -3.073965518   6.146835906
  S   -0.836230232  -2.137363437   5.155221642
  S   -1.088555121  -0.211265531   5.802973690
  C   -2.457942179   0.400379153   4.771386242
  H   -1.912191448  -4.120555745   5.874356499
  H   -3.059216044  -2.769016588   5.913741938
  H   -1.843365193  -2.946230642   7.206635394
  H   -2.600624287   1.445323810   5.044045521
  H   -3.373345396  -0.149198650   4.972189549
  H   -2.198084802   0.331615305   3.719172165
