10
charge=0 charge_a=0 charge_b=0 selection_a=1-1 selection_b=2-10 scaling=1.05 benchmark_Eint=-1.729 benchmark_unit=kcal/mol group=NobleGases
 Xe   -0.244060010   0.126599898  -1.858867545
  C   -2.170156311  -0.159778351   1.844962896
  C   -1.610779175   1.142038104   1.962030418
  C   -0.273468446   1.114811000   2.232125260
  S    0.312742194  -0.495294524   2.345218011
  C   -1.244766135  -1.145644852   2.028858774
  H   -3.209576458  -0.353313317   1.631181656
  H   -2.175094119   2.054185924   1.847634018
  H    0.395586318   1.946338981   2.366713816
  H   -1.390731490  -2.210818975   1.992988526
