11
charge=0 charge_a=0 charge_b=0 selection_a=1-1 selection_b=2-11 scaling=0.80 benchmark_Eint=1.678 benchmark_unit=kcal/mol group=NobleGases
 Xe    2.506703664   1.011462334  -0.587155248
  C    0.050378907  -1.870733588   2.891355882
  S    1.256920803  -0.934131507   1.899741618
  S    1.004595914   0.991966399   2.547493666
  C   -0.364791144   1.603611083   1.515906218
  H    0.180959587  -2.917323815   2.618876475
  H   -0.966065009  -1.565784658   2.658261914
  H    0.249785842  -1.742998712   3.951155370
  H   -0.507473252   2.648555740   1.788565497
  H   -1.280194361   1.054033280   1.716709525
  H   -0.104933767   1.534847235   0.463692141
