11
charge=0 charge_a=0 charge_b=0 selection_a=1-1 selection_b=2-11 scaling=0.95 benchmark_Eint=-1.505 benchmark_unit=kcal/mol group=NobleGases
 Xe    2.506703664   1.011462334  -0.587155248
  C   -0.211264973  -2.021137579   3.298290885
  S    0.995276923  -1.084535498   2.306676621
  S    0.742952034   0.841562408   2.954428669
  C   -0.626435024   1.453207092   1.922841221
  H   -0.080684293  -3.067727806   3.025811478
  H   -1.227708889  -1.716188649   3.065196917
  H   -0.011858038  -1.893402703   4.358090373
  H   -0.769117132   2.498151749   2.195500500
  H   -1.541838241   0.903629289   2.123644528
  H   -0.366577647   1.384443244   0.870627144
