10
charge=0 charge_a=0 charge_b=0 selection_a=1-1 selection_b=2-10 scaling=1.10 benchmark_Eint=-1.482 benchmark_unit=kcal/mol group=NobleGases
 Xe   -0.244060010   0.126599898  -1.858867545
  C   -2.193450257  -0.167830717   2.043283421
  C   -1.634073121   1.133985738   2.160350943
  C   -0.296762392   1.106758634   2.430445785
  S    0.289448248  -0.503346890   2.543538536
  C   -1.268060081  -1.153697218   2.227179299
  H   -3.232870404  -0.361365683   1.829502181
  H   -2.198388065   2.046133558   2.045954543
  H    0.372292372   1.938286615   2.565034341
  H   -1.414025436  -2.218871341   2.191309051
