11
charge=0 charge_a=0 charge_b=0 selection_a=1 selection_b=2-11 scaling=1.00 benchmark_Eint=-1.568 benchmark_unit=kcal/mol group=NobleGases
 Xe    0.293870577  -1.063445099  -1.449412731
  C   -2.326283907  -0.827631473   1.729093428
  C   -1.627770527   0.486477491   1.537493364
  S   -2.480528676   1.532531031   0.388363538
  C   -0.495728137   0.815351896   2.151956322
  H   -2.398871260  -1.369768457   0.785060509
  H   -3.342305486  -0.680751183   2.098220685
  H   -1.783755163  -1.444605782   2.441286067
  H   -0.029648384   0.120943046   2.836436769
  H   -1.627271286   2.566477081   0.424806895
  H   -0.002598509   1.763616368   1.997892322
