11
charge=0 charge_a=0 charge_b=0 selection_a=1-1 selection_b=2-11 scaling=1.25 benchmark_Eint=-0.823 benchmark_unit=kcal/mol group=NobleGases
 Xe    2.506703664   1.011462334  -0.587155248
  C   -0.734552731  -2.321945562   4.112160891
  S    0.471989165  -1.385343481   3.120546627
  S    0.219664276   0.540754425   3.768298675
  C   -1.149722782   1.152399109   2.736711227
  H   -0.603972051  -3.368535789   3.839681484
  H   -1.750996647  -2.016996632   3.879066923
  H   -0.535145796  -2.194210686   5.171960379
  H   -1.292404890   2.197343766   3.009370506
  H   -2.065125999   0.602821306   2.937514534
  H   -0.889865405   1.083635261   1.684497150
