10
charge=0 charge_a=0 charge_b=0 selection_a=1-1 selection_b=2-10 scaling=0.80 benchmark_Eint=5.360 benchmark_unit=kcal/mol group=NobleGases
 Xe   -0.244060010   0.126599898  -1.858867545
  C   -2.053686581  -0.119516525   0.853360274
  C   -1.494309445   1.182299930   0.970427796
  C   -0.156998716   1.155072826   1.240522638
  S    0.429211924  -0.455032698   1.353615389
  C   -1.128296405  -1.105383026   1.037256152
  H   -3.093106728  -0.313051491   0.639579034
  H   -2.058624389   2.094447750   0.856031396
  H    0.512056048   1.986600807   1.375111194
  H   -1.274261760  -2.170557149   1.001385904
