10
charge=0 charge_a=0 charge_b=0 selection_a=1-1 selection_b=2-10 scaling=0.95 benchmark_Eint=-1.755 benchmark_unit=kcal/mol group=NobleGases
 Xe   -0.244060010   0.126599898  -1.858867545
  C   -2.123568419  -0.143673621   1.448321848
  C   -1.564191283   1.158142834   1.565389370
  C   -0.226880554   1.130915730   1.835484212
  S    0.359330086  -0.479189794   1.948576963
  C   -1.198178243  -1.129540122   1.632217726
  H   -3.162988566  -0.337208587   1.234540608
  H   -2.128506227   2.070290654   1.450992970
  H    0.442174210   1.962443711   1.970072768
  H   -1.344143598  -2.194714245   1.596347478
