11
charge=0 charge_a=0 charge_b=0 selection_a=1 selection_b=2-11 scaling=1.00 benchmark_Eint=-1.578 benchmark_unit=kcal/mol group=NobleGases
 Xe    2.506703664   1.011462334  -0.587155248
  C   -0.298479599  -2.071272243   3.433935886
  S    0.908062297  -1.134670162   2.442321622
  S    0.655737408   0.791427744   3.090073670
  C   -0.713649650   1.403072428   2.058486222
  H   -0.167898919  -3.117862470   3.161456479
  H   -1.314923515  -1.766323313   3.200841918
  H   -0.099072664  -1.943537367   4.493735374
  H   -0.856331758   2.448017085   2.331145501
  H   -1.629052867   0.853494625   2.259289529
  H   -0.453792273   1.334308580   1.006272145
