11
charge=0 charge_a=0 charge_b=0 selection_a=1-1 selection_b=2-11 scaling=2.00 benchmark_Eint=-0.054 benchmark_unit=kcal/mol group=NobleGases
 Xe    0.293870577  -1.063445099  -1.449412731
  C   -4.322277112   0.810841990   4.110055229
  C   -3.623763732   2.124950954   3.918455165
  S   -4.476521881   3.171004494   2.769325339
  C   -2.491721342   2.453825359   4.532918123
  H   -4.394864465   0.268705006   3.166022310
  H   -5.338298691   0.957722280   4.479182486
  H   -3.779748368   0.193867681   4.822247868
  H   -2.025641589   1.759416509   5.217398570
  H   -3.623264491   4.204950544   2.805768696
  H   -1.998591714   3.402089831   4.378854123
