11
charge=0 charge_a=0 charge_b=0 selection_a=1-1 selection_b=2-11 scaling=1.05 benchmark_Eint=-1.493 benchmark_unit=kcal/mol group=NobleGases
 Xe    2.506703664   1.011462334  -0.587155248
  C   -0.385694225  -2.121406907   3.569580887
  S    0.820847671  -1.184804826   2.577966623
  S    0.568522782   0.741293080   3.225718671
  C   -0.800864276   1.352937764   2.194131223
  H   -0.255113545  -3.167997134   3.297101480
  H   -1.402138141  -1.816457977   3.336486919
  H   -0.186287290  -1.993672031   4.629380375
  H   -0.943546384   2.397882421   2.466790502
  H   -1.716267493   0.803359961   2.394934530
  H   -0.541006899   1.284173916   1.141917146
