13
charge=0 charge_a=0 charge_b=0 selection_a=1-1 selection_b=2-13 scaling=0.85 benchmark_Eint=0.120 benchmark_unit=kcal/mol group=NobleGases
 He    0.088534414  -0.102731157  -1.405715541
  F   -0.296899956   3.049548897   0.579666398
  C   -0.043633534   1.770293458   0.843566670
  C   -1.089848485   0.891628752   1.086477861
  F   -2.346255202   1.328395658   1.055453767
  C   -0.825735050  -0.442741667   1.360901174
  F   -1.828878799  -1.285427746   1.592998234
  C    0.484592093  -0.898439026   1.392425294
  F    0.737791615  -2.178015936   1.654808751
  C    1.530805857  -0.019771147   1.149525321
  F    2.787130134  -0.456870860   1.179050192
  C    1.266694229   1.314599022   0.875105147
  F    2.269773320   2.156940900   0.641484078
