13
charge=0 charge_a=0 charge_b=0 selection_a=1-1 selection_b=2-13 scaling=2.00 benchmark_Eint=-0.008 benchmark_unit=kcal/mol group=NobleGases
 He    0.088534414  -0.102731157  -1.405715541
  F   -0.098067219   3.861256588   4.382683662
  C    0.155199203   2.582001149   4.646583934
  C   -0.891015748   1.703336443   4.889495125
  F   -2.147422465   2.140103349   4.858471031
  C   -0.626902313   0.368966024   5.163918438
  F   -1.630046062  -0.473720055   5.396015498
  C    0.683424830  -0.086731335   5.195442558
  F    0.936624352  -1.366308245   5.457826015
  C    1.729638594   0.791936544   4.952542585
  F    2.985962871   0.354836831   4.982067456
  C    1.465526966   2.126306713   4.678122411
  F    2.468606057   2.968648591   4.444501342
