13
charge=0 charge_a=0 charge_b=0 selection_a=1-1 selection_b=2-13 scaling=0.90 benchmark_Eint=-0.166 benchmark_unit=kcal/mol group=NobleGases
 He    0.088534414  -0.102731157  -1.405715541
  F   -0.288255054   3.084840535   0.745014975
  C   -0.034988632   1.805585096   1.008915247
  C   -1.081203583   0.926920390   1.251826438
  F   -2.337610300   1.363687296   1.220802344
  C   -0.817090148  -0.407450029   1.526249751
  F   -1.820233897  -1.250136108   1.758346811
  C    0.493236995  -0.863147388   1.557773871
  F    0.746436517  -2.142724298   1.820157328
  C    1.539450759   0.015520491   1.314873898
  F    2.795775036  -0.421579222   1.344398769
  C    1.275339131   1.349890660   1.040453724
  F    2.278418222   2.192232538   0.806832655
