7
charge=0 charge_a=0 charge_b=0 selection_a=1-1 selection_b=2-7 scaling=2.00 benchmark_Eint=-0.009 benchmark_unit=kcal/mol group=NobleGases
 Ne    0.043909367   0.069479634  -1.518549850
  F    1.108725415   0.132207069   4.553183357
  C   -0.103497428   0.238727216   5.059280073
  F   -0.296153573   1.369144642   5.709202646
  C   -1.030802701  -0.691512880   4.927586606
  F   -0.838397696  -1.821317451   4.276822691
  F   -2.243597504  -0.584484181   5.432573041
