7
charge=0 charge_a=0 charge_b=0 selection_a=1 selection_b=2-7 scaling=1.00 benchmark_Eint=-0.353 benchmark_unit=kcal/mol group=NobleGases
 Ne    0.043909367   0.069479634  -1.518549850
  F    1.407285497   0.276627602   1.372461254
  C    0.195062654   0.383147749   1.878557970
  F    0.002406509   1.513565175   2.528480543
  C   -0.732242619  -0.547092347   1.746864503
  F   -0.539837614  -1.676896918   1.096100588
  F   -1.945037422  -0.440063648   2.251850938
