6
charge=0 charge_a=0 charge_b=0 selection_a=1-1 selection_b=2-6 scaling=1.25 benchmark_Eint=-0.105 benchmark_unit=kcal/mol group=NobleGases
 He    1.226938983  -0.325670233  -2.907216757
  C   -0.174777554  -0.726282276   0.818755466
 Cl    1.026431612   0.514198867   1.249171807
 Cl   -1.694421332  -0.033746537   0.203853161
  H   -0.402543133  -1.295181408   1.709790310
  H    0.248917394  -1.346854151   0.041169435
