6
charge=0 charge_a=0 charge_b=0 selection_a=1-1 selection_b=2-6 scaling=1.50 benchmark_Eint=-0.045 benchmark_unit=kcal/mol group=NobleGases
 He    1.226938983  -0.325670233  -2.907216757
  C   -0.432307085  -0.660373490   1.432247650
 Cl    0.768902081   0.580107653   1.862663991
 Cl   -1.951950863   0.032162249   0.817345345
  H   -0.660072664  -1.229272622   2.323282494
  H   -0.008612137  -1.280945365   0.654661619
