6
charge=0 charge_a=0 charge_b=0 selection_a=1-1 selection_b=2-6 scaling=0.90 benchmark_Eint=-0.169 benchmark_unit=kcal/mol group=NobleGases
 He    1.226938983  -0.325670233  -2.907216757
  C    0.185763789  -0.818554578  -0.040133590
 Cl    1.386972955   0.421926565   0.390282751
 Cl   -1.333879989  -0.126018839  -0.655035895
  H   -0.042001790  -1.387453710   0.850901254
  H    0.609458737  -1.439126453  -0.817719621
