6
charge=0 charge_a=0 charge_b=0 selection_a=1-1 selection_b=2-6 scaling=0.95 benchmark_Eint=-0.199 benchmark_unit=kcal/mol group=NobleGases
 He    1.226938983  -0.325670233  -2.907216757
  C    0.134257883  -0.805372820   0.082564846
 Cl    1.335467049   0.435108323   0.512981187
 Cl   -1.385385895  -0.112837081  -0.532337459
  H   -0.093507696  -1.374271952   0.973599690
  H    0.557952831  -1.425944695  -0.695021185
