6
charge=0 charge_a=0 charge_b=0 selection_a=1-1 selection_b=2-6 scaling=1.05 benchmark_Eint=-0.352 benchmark_unit=kcal/mol group=NobleGases
 Ne    1.283602037   1.515759175  -1.872722723
  C   -0.458168943   0.250292915   0.952856525
 Cl   -1.637393261  -0.336449011  -0.243904386
 Cl    0.944050399  -0.831145545   1.130158640
  H   -0.956122731   0.312525697   1.910783183
  H   -0.097244830   1.214322199   0.621911926
