6
charge=0 charge_a=0 charge_b=0 selection_a=1-1 selection_b=2-6 scaling=0.80 benchmark_Eint=0.355 benchmark_unit=kcal/mol group=NobleGases
 Ne    1.283602037   1.515759175  -1.872722723
  C   -0.135295874   0.631724611   0.481850198
 Cl   -1.314520192   0.044982685  -0.714910713
 Cl    1.266923468  -0.449713849   0.659152313
  H   -0.633249662   0.693957393   1.439776856
  H    0.225628239   1.595753895   0.150905599
