6
charge=0 charge_a=0 charge_b=0 selection_a=1-1 selection_b=2-6 scaling=1.50 benchmark_Eint=-0.082 benchmark_unit=kcal/mol group=NobleGases
 Ne    1.283602037   1.515759175  -1.872722723
  C   -1.039340467  -0.436284138   1.800667915
 Cl   -2.218564785  -1.023026064   0.603907004
 Cl    0.362878875  -1.517722598   1.977970030
  H   -1.537294255  -0.374051356   2.758594573
  H   -0.678416354   0.527745146   1.469723316
