6
charge=0 charge_a=0 charge_b=0 selection_a=1-1 selection_b=2-6 scaling=0.90 benchmark_Eint=-0.282 benchmark_unit=kcal/mol group=NobleGases
 Ne    1.283602037   1.515759175  -1.872722723
  C   -0.264445101   0.479151932   0.670252729
 Cl   -1.443669419  -0.107589994  -0.526508182
 Cl    1.137774241  -0.602286528   0.847554844
  H   -0.762398889   0.541384714   1.628179387
  H    0.096479012   1.443181216   0.339308130
