6
charge=0 charge_a=0 charge_b=0 selection_a=1-1 selection_b=2-6 scaling=1.10 benchmark_Eint=-0.315 benchmark_unit=kcal/mol group=NobleGases
 Ne    1.283602037   1.515759175  -1.872722723
  C   -0.522743557   0.174006576   1.047057791
 Cl   -1.701967875  -0.412735350  -0.149703120
 Cl    0.879475785  -0.907431884   1.224359906
  H   -1.020697345   0.236239358   2.004984449
  H   -0.161819444   1.138035860   0.716113192
