6
charge=0 charge_a=0 charge_b=0 selection_a=1-1 selection_b=2-6 scaling=1.10 benchmark_Eint=-0.899 benchmark_unit=kcal/mol group=NobleGases
 Kr    0.025629656  -0.220328756  -1.896065676
  C   -0.544009117  -0.932450703   2.580229309
 Cl    1.092731395  -0.290449483   2.335558942
 Cl   -1.776154769   0.235795438   2.062736438
 Cl   -0.751848862  -2.491736017   1.757880537
  H   -0.675362171  -1.100112119   3.638703408
