6
charge=0 charge_a=0 charge_b=0 selection_a=1-1 selection_b=2-6 scaling=0.85 benchmark_Eint=0.395 benchmark_unit=kcal/mol group=NobleGases
 Kr    0.025629656  -0.220328756  -1.896065676
  C   -0.419004697  -0.776533732   1.600655794
 Cl    1.217735815  -0.134532512   1.355985427
 Cl   -1.651150349   0.391712409   1.083162923
 Cl   -0.626844442  -2.335819046   0.778307022
  H   -0.550357751  -0.944195148   2.659129893
