6
charge=0 charge_a=0 charge_b=0 selection_a=1-1 selection_b=2-6 scaling=0.80 benchmark_Eint=1.546 benchmark_unit=kcal/mol group=NobleGases
 Xe    0.010139697  -0.098045699  -2.040512766
  C   -0.405358405  -0.905224087   1.146723876
 Cl    1.223425850  -0.204798281   1.295856833
 Cl   -1.682579444   0.330051952   1.053914266
  H   -0.590174646  -1.513703665   2.021343291
  H   -0.436287274  -1.485779757   0.234822999
