6
charge=0 charge_a=0 charge_b=0 selection_a=1-1 selection_b=2-6 scaling=0.80 benchmark_Eint=0.389 benchmark_unit=kcal/mol group=NobleGases
 Ne   -0.087818552  -0.562993095  -1.131977036
  C   -0.406727203  -0.610940194   1.758112993
 Br    1.401883505   0.099369030   1.751174923
 Br   -1.776432332   0.719149806   1.396831872
  H   -0.595210008  -1.015695368   2.740897773
  H   -0.466381385  -1.360034667   0.983343108
