6
charge=0 charge_a=0 charge_b=0 selection_a=1-1 selection_b=2-6 scaling=0.95 benchmark_Eint=-0.373 benchmark_unit=kcal/mol group=NobleGases
 Ne   -0.087818552  -0.562993095  -1.131977036
  C   -0.423741900  -0.484229853   2.148618071
 Br    1.384868808   0.226079371   2.141680001
 Br   -1.793447029   0.845860147   1.787336950
  H   -0.612224705  -0.888985027   3.131402851
  H   -0.483396082  -1.233324326   1.373848186
