6
charge=0 charge_a=0 charge_b=0 selection_a=1-1 selection_b=2-6 scaling=0.85 benchmark_Eint=-0.056 benchmark_unit=kcal/mol group=NobleGases
 Ne   -0.087818552  -0.562993095  -1.131977036
  C   -0.412398769  -0.568703413   1.888281352
 Br    1.396211939   0.141605811   1.881343282
 Br   -1.782103898   0.761386587   1.527000231
  H   -0.600881574  -0.973458587   2.871066132
  H   -0.472052951  -1.317797886   1.113511467
