6
charge=0 charge_a=0 charge_b=0 selection_a=1-1 selection_b=2-6 scaling=1.50 benchmark_Eint=-0.096 benchmark_unit=kcal/mol group=NobleGases
 Ne   -0.087818552  -0.562993095  -1.131977036
  C   -0.486129124  -0.019625271   3.580470027
 Br    1.322481584   0.690683953   3.573531957
 Br   -1.855834253   1.310464729   3.219188906
  H   -0.674611929  -0.424380445   4.563254807
  H   -0.545783306  -0.768719744   2.805700142
