6
charge=0 charge_a=0 charge_b=0 selection_a=1-5 selection_b=6-6 scaling=0.85 benchmark_Eint=-0.349 benchmark_unit=kcal/mol group=NobleGases
  C    0.022326407   0.831426892  -2.198412661
 Br    1.641714202  -0.240207828  -2.261042582
 Br   -1.610319421  -0.215689884  -2.085782578
  H   -0.022344457   1.410242091  -3.108438490
  H    0.074580917   1.449986480  -1.315451395
 Ar    0.194167319   0.253081540   1.014921601
