6
charge=0 charge_a=0 charge_b=0 selection_a=1-1 selection_b=2-6 scaling=0.80 benchmark_Eint=1.564 benchmark_unit=kcal/mol group=NobleGases
 Kr    0.544049459  -1.585654951  -1.907129690
  C   -0.769626060   1.808919617   1.597987363
 Br   -0.223604473   0.524869563   0.225126460
  H   -1.821031839   1.647582956   1.798755265
  H   -0.593408761   2.802800601   1.206898783
  H   -0.169324507   1.622529797   2.479290362
