6
charge=0 charge_a=0 charge_b=0 selection_a=1-1 selection_b=2-6 scaling=2.00 benchmark_Eint=-0.014 benchmark_unit=kcal/mol group=NobleGases
 Kr    0.544049459  -1.585654951  -1.907129690
  C   -1.934722475   4.963812355   4.802189348
 Br   -1.388700888   3.679762301   3.429328445
  H   -2.986128254   4.802475694   5.002957250
  H   -1.758505176   5.957693339   4.411100768
  H   -1.334420922   4.777422535   5.683492347
