6
charge=0 charge_a=0 charge_b=0 selection_a=1-1 selection_b=2-6 scaling=1.10 benchmark_Eint=-0.501 benchmark_unit=kcal/mol group=NobleGases
 Kr    0.544049459  -1.585654951  -1.907129690
  C   -1.060900164   2.597642801   2.399037859
 Br   -0.514878577   1.313592747   1.026176956
  H   -2.112305943   2.436306140   2.599805761
  H   -0.884682865   3.591523785   2.007949279
  H   -0.460598611   2.411252981   3.280340858
