6
charge=0 charge_a=0 charge_b=0 selection_a=1-1 selection_b=2-6 scaling=1.50 benchmark_Eint=-0.081 benchmark_unit=kcal/mol group=NobleGases
 Kr    0.544049459  -1.585654951  -1.907129690
  C   -1.449265636   3.649273714   3.467105187
 Br   -0.903244049   2.365223660   2.094244284
  H   -2.500671415   3.487937053   3.667873089
  H   -1.273048337   4.643154698   3.076016607
  H   -0.848964083   3.462883894   4.348408186
