6
charge=0 charge_a=0 charge_b=0 selection_a=1-1 selection_b=2-6 scaling=1.05 benchmark_Eint=-0.395 benchmark_unit=kcal/mol group=NobleGases
 Ne   -0.520137082   0.201424214  -2.995737074
  C   -0.226224247  -0.954073795   0.404704486
  I    1.696389559  -0.006871682   0.457372992
  I   -1.895549809   0.311621610   0.860531500
  H   -0.214305701  -1.746972888   1.137175916
  H   -0.371897068  -1.329803720  -0.596633254
