6
charge=0 charge_a=0 charge_b=0 selection_a=1-1 selection_b=2-6 scaling=1.10 benchmark_Eint=-0.363 benchmark_unit=kcal/mol group=NobleGases
 Ne   -0.520137082   0.201424214  -2.995737074
  C   -0.210808487  -0.958227408   0.540447278
  I    1.711805319  -0.011025295   0.593115784
  I   -1.880134049   0.307467997   0.996274292
  H   -0.198889941  -1.751126501   1.272918708
  H   -0.356481308  -1.333957333  -0.460890462
