6
charge=0 charge_a=0 charge_b=0 selection_a=1-1 selection_b=2-6 scaling=0.80 benchmark_Eint=0.353 benchmark_unit=kcal/mol group=NobleGases
 Ne   -0.520137082   0.201424214  -2.995737074
  C   -0.303303043  -0.933305726  -0.274009470
  I    1.619310763   0.013896387  -0.221340964
  I   -1.972628605   0.332389679   0.181817544
  H   -0.291384497  -1.726204819   0.458461960
  H   -0.448975864  -1.309035651  -1.275347210
