6
charge=0 charge_a=0 charge_b=0 selection_a=1-5 selection_b=6-6 scaling=1.50 benchmark_Eint=-0.266 benchmark_unit=kcal/mol group=NobleGases
  C    0.023509785   0.907374821  -2.308598064
  I    1.845282108  -0.217564098  -2.411283012
  I   -1.778020992  -0.252010925  -2.237799083
  H   -0.024718532   1.523317303  -3.193798073
  H    0.061214365   1.497114749  -1.405324337
 Ar    0.263831437   0.580396434   2.852871478
