6
charge=0 charge_a=0 charge_b=0 selection_a=1-1 selection_b=2-6 scaling=0.95 benchmark_Eint=-1.396 benchmark_unit=kcal/mol group=NobleGases
 Kr   -0.003467441  -0.344573194  -1.757387890
  C   -0.532932293  -0.980730005   2.227123390
  I    1.464019358  -0.208079530   2.020686706
  I   -2.045439063   0.439779231   1.659801766
  I   -0.791140507  -2.900460047   1.291569878
  H   -0.672621122  -1.149575373   3.282816676
