6
charge=0 charge_a=0 charge_b=0 selection_a=1-1 selection_b=2-6 scaling=2.00 benchmark_Eint=-0.037 benchmark_unit=kcal/mol group=NobleGases
 Kr   -0.003467441  -0.344573194  -1.757387890
  C   -1.112376970  -1.676285548   6.585012280
  I    0.884574681  -0.903635073   6.378575596
  I   -2.624883740  -0.255776312   6.017690656
  I   -1.370585184  -3.596015590   5.649458768
  H   -1.252065799  -1.845130916   7.640705566
