6
charge=0 charge_a=0 charge_b=0 selection_a=1-1 selection_b=2-6 scaling=0.90 benchmark_Eint=-0.890 benchmark_unit=kcal/mol group=NobleGases
 Kr   -0.003467441  -0.344573194  -1.757387890
  C   -0.505339690  -0.947608313   2.019604872
  I    1.491611961  -0.174957838   1.813168188
  I   -2.017846460   0.472900923   1.452283248
  I   -0.763547904  -2.867338355   1.084051360
  H   -0.645028519  -1.116453681   3.075298158
