6
charge=0 charge_a=0 charge_b=0 selection_a=1-1 selection_b=2-6 scaling=0.85 benchmark_Eint=-0.550 benchmark_unit=kcal/mol group=NobleGases
 Xe    0.258877799  -0.045819597  -2.030792305
  C   -0.386934134  -0.833963516   1.342087786
  I    1.593985690  -0.101571093   1.706681772
  I   -1.917051039   0.661138013   1.212641501
  H   -0.644355512  -1.488740030   2.160831838
  H   -0.366703762  -1.353695427   0.395947826
