6
charge=0 charge_a=0 charge_b=0 selection_a=1 selection_b=2-6 scaling=1.00 benchmark_Eint=-1.794 benchmark_unit=kcal/mol group=NobleGases
 Xe    0.258877799  -0.045819597  -2.030792305
  C   -0.446867869  -0.797589302   1.824181090
  I    1.534051955  -0.065196879   2.188775076
  I   -1.976984774   0.697512227   1.694734805
  H   -0.704289247  -1.452365816   2.642925142
  H   -0.426637497  -1.317321213   0.878041130
