6
charge=0 charge_a=0 charge_b=0 selection_a=1-1 selection_b=2-6 scaling=0.95 benchmark_Eint=-1.741 benchmark_unit=kcal/mol group=NobleGases
 Xe    0.258877799  -0.045819597  -2.030792305
  C   -0.426889957  -0.809714040   1.663483322
  I    1.554029867  -0.077321617   2.028077308
  I   -1.957006862   0.685387489   1.534037037
  H   -0.684311335  -1.464490554   2.482227374
  H   -0.406659585  -1.329445951   0.717343362
