6
charge=0 charge_a=0 charge_b=0 selection_a=1-2 selection_b=3-6 scaling=1.25 benchmark_Eint=0.368 benchmark_unit=kcal/mol group=HCNO contact=H-H
  H    0.341976244  -0.556655337   0.461721869
  H    0.658976244  -1.072655337   0.889721869
  B   -1.051163201   1.711041675  -1.419236119
  H   -0.543605437   0.884859324  -0.733953083
  H   -1.204719365   2.813815756  -1.004671490
  H   -1.405988114   1.435355831  -2.518375598
