4
charge=0 charge_a=0 charge_b=0 selection_a=1-2 selection_b=3-4 scaling=1.25 benchmark_Eint=1.648 benchmark_unit=kcal/mol group=HCNO contact=H-H
  F    0.655496934  -0.274524357   1.568710612
  H    0.304496934  -0.127524357   0.728710612
  F   -1.299934245   0.544416906  -3.110953751
  H   -0.948934245   0.397416906  -2.270953751
