8
charge=0 charge_a=0 charge_b=0 selection_a=1-4 selection_b=5-8 scaling=1.00 benchmark_Eint=2.941 benchmark_unit=kcal/mol group=HCNO contact=H-H
  C    0.052610641  -1.106577151  -1.495895895
  C    0.085610641  -1.817577151  -2.456895895
  H    0.022610641  -0.475577151  -0.642895895
  H    0.114610641  -2.448577151  -3.309895895
  B   -0.054197482   1.139953733   1.541015109
  H   -0.020638993   0.434106824   0.586835373
  H    0.721040970   2.034171798   1.645577981
  H   -0.861721327   0.952014394   2.391071016
