6
charge=0 charge_a=0 charge_b=0 selection_a=1-2 selection_b=3-6 scaling=1.15 benchmark_Eint=0.929 benchmark_unit=kcal/mol group=HCNO contact=H-H
  H    0.341976244  -0.556655337   0.461721869
  H    0.658976244  -1.072655337   0.889721869
  B   -0.980305723   1.595702690  -1.323567347
  H   -0.472747960   0.769520338  -0.638284312
  H   -1.133861887   2.698476770  -0.909002719
  H   -1.335130637   1.320016846  -2.422706827
