10
charge=0 charge_a=0 charge_b=0 selection_a=1-5 selection_b=6-10 scaling=1.25 benchmark_Eint=0.333 benchmark_unit=kcal/mol group=HCNO contact=H-H
  C   -1.485547661  -1.164488879   0.027767246
  H   -0.629547661  -0.493488879   0.011767246
  H   -1.452547661  -1.772488879   0.929767246
  H   -2.403547661  -0.582488879   0.016767246
  H   -1.455547661  -1.811488879  -0.846232754
  C    1.779546419   1.394948185  -0.033262550
  H    0.923546419   0.723948185  -0.017262550
  H    1.448257250   2.410003201   0.177136602
  H    2.498234483   1.084935678   0.721024340
  H    2.247147524   1.362905678  -1.014948592
