4
charge=0 charge_a=0 charge_b=0 selection_a=1-2 selection_b=3-4 scaling=1.25 benchmark_Eint=0.564 benchmark_unit=kcal/mol group=HCNO contact=H-H
  H    0.341976244  -0.556655337   0.461721869
  H    0.658976244  -1.072655337   0.889721869
  H   -0.530541945   0.863595090  -0.716315308
  H   -0.847541945   1.379595090  -1.144315308
