6
charge=0 charge_a=0 charge_b=0 selection_a=1-2 selection_b=3-6 scaling=1.25 benchmark_Eint=-0.061 benchmark_unit=kcal/mol group=HCNO contact=H-H
  F    0.655496934  -0.274524357   1.568710612
  H    0.304496934  -0.127524357   0.728710612
  B   -0.725491387   0.303838273  -1.736218704
  H   -0.273560045   0.114567882  -0.654673614
  H   -1.839310332   0.700423703  -1.853186024
  H   -0.064978161   0.096208747  -2.700906870
