8
charge=0 charge_a=0 charge_b=0 selection_a=1-4 selection_b=5-8 scaling=1.10 benchmark_Eint=1.280 benchmark_unit=kcal/mol group=HCNO contact=H-H
  C    0.052610641  -1.106577151  -1.495895895
  C    0.085610641  -1.817577151  -2.456895895
  H    0.022610641  -0.475577151  -0.642895895
  H    0.114610641  -2.448577151  -3.309895895
  B   -0.058520637   1.230884084   1.663936804
  H   -0.024962148   0.525037175   0.709757068
  H    0.716717815   2.125102149   1.768499677
  H   -0.866044482   1.042944745   2.513992712
