9
charge=0 charge_a=0 charge_b=0 selection_a=1-5 selection_b=6-9 scaling=1.00 benchmark_Eint=2.944 benchmark_unit=kcal/mol group=HCNO contact=H-H
  C   -1.485547661  -1.164488879   0.027767246
  H   -0.629547661  -0.493488879   0.011767246
  H   -1.452547661  -1.772488879   0.929767246
  H   -2.403547661  -0.582488879   0.016767246
  H   -1.455547661  -1.811488879  -0.846232754
  C    1.426308789   1.118052800  -0.026659977
  C    2.366941179   1.856307102  -0.044612439
  H    0.591019344   0.463287360  -0.011047091
  H    3.201626957   2.511788463  -0.060576103
