10
charge=0 charge_a=0 charge_b=0 selection_a=1-5 selection_b=6-10 scaling=1.10 benchmark_Eint=1.392 benchmark_unit=kcal/mol group=HCNO contact=H-H
  C   -1.485547661  -1.164488879   0.027767246
  H   -0.629547661  -0.493488879   0.011767246
  H   -1.452547661  -1.772488879   0.929767246
  H   -2.403547661  -0.582488879   0.016767246
  H   -1.455547661  -1.811488879  -0.846232754
  C    1.593074402   1.248776779  -0.029777092
  H    0.737074401   0.577776780  -0.013777092
  H    1.261785233   2.263831795   0.180622060
  H    2.311762465   0.938764272   0.724509798
  H    2.060675507   1.216734272  -1.011463133
