6
charge=0 charge_a=0 charge_b=0 selection_a=1-2 selection_b=3-6 scaling=1.00 benchmark_Eint=3.079 benchmark_unit=kcal/mol group=HCNO contact=H-H
  F    0.655496934  -0.274524357   1.568710612
  H    0.304496934  -0.127524357   0.728710612
  C   -0.820926446   0.343806802  -1.964610299
  C   -1.276814978   0.534153127  -3.053676378
  H   -0.416917202   0.174606349  -0.997750569
  H   -1.681721092   0.703098172  -4.020175012
