9
charge=0 charge_a=0 charge_b=0 selection_a=1-5 selection_b=6-9 scaling=1.10 benchmark_Eint=1.501 benchmark_unit=kcal/mol group=HCNO contact=H-H
  C   -1.485547661  -1.164488879   0.027767246
  H   -0.629547661  -0.493488879   0.011767246
  H   -1.452547661  -1.772488879   0.929767246
  H   -2.403547661  -0.582488879   0.016767246
  H   -1.455547661  -1.811488879  -0.846232754
  C    1.548315125   1.213690945  -0.028940470
  C    2.488947516   1.951945247  -0.046892931
  H    0.713025681   0.558925504  -0.013327583
  H    3.323633294   2.607426608  -0.062856595
