10
charge=0 charge_a=0 charge_b=0 selection_a=1-5 selection_b=6-10 scaling=1.05 benchmark_Eint=2.019 benchmark_unit=kcal/mol group=HCNO contact=H-H
  C   -1.485547661  -1.164488879   0.027767246
  H   -0.629547661  -0.493488879   0.011767246
  H   -1.452547661  -1.772488879   0.929767246
  H   -2.403547661  -0.582488879   0.016767246
  H   -1.455547661  -1.811488879  -0.846232754
  C    1.531001002   1.200118776  -0.028616841
  H    0.675001002   0.529118776  -0.012616841
  H    1.199711833   2.215173791   0.181782310
  H    2.249689066   0.890106269   0.725670049
  H    1.998602107   1.168076268  -1.010302883
