8
charge=0 charge_a=0 charge_b=0 selection_a=1-4 selection_b=5-8 scaling=1.15 benchmark_Eint=1.545 benchmark_unit=kcal/mol group=HCNO contact=H-H
  C    0.052610641  -1.106577151  -1.495895895
  C    0.085610641  -1.817577151  -2.456895895
  H    0.022610641  -0.475577151  -0.642895895
  H    0.114610641  -2.448577151  -3.309895895
  C   -0.063147200   1.328196103   1.795485382
  C   -0.096142772   2.039142800   2.756524968
  H   -0.033147200   0.697196103   0.942485382
  H   -0.125151628   2.670249406   3.609445796
