9
charge=0 charge_a=0 charge_b=0 selection_a=1-5 selection_b=6-9 scaling=1.15 benchmark_Eint=1.043 benchmark_unit=kcal/mol group=HCNO contact=H-H
  C   -1.485547661  -1.164488879   0.027767246
  H   -0.629547661  -0.493488879   0.011767246
  H   -1.452547661  -1.772488879   0.929767246
  H   -2.403547661  -0.582488879   0.016767246
  H   -1.455547661  -1.811488879  -0.846232754
  C    1.609381248   1.261559366  -0.030081892
  C    2.550013639   1.999813668  -0.048034354
  H    0.774091804   0.606793926  -0.014469006
  H    3.384699417   2.655295029  -0.063998018
