6
charge=0 charge_a=0 charge_b=0 selection_a=1-2 selection_b=3-6 scaling=1.05 benchmark_Eint=2.908 benchmark_unit=kcal/mol group=HCNO contact=H-H
  F    0.655496934  -0.274524357   1.568710612
  H    0.304496934  -0.127524357   0.728710612
  B   -0.632985218   0.265096373  -1.514836420
  H   -0.181053877   0.075825983  -0.433291330
  H   -1.746804163   0.661681804  -1.631803740
  H    0.027528008   0.057466848  -2.479524586
