11
charge=0 charge_a=0 charge_b=0 selection_a=1-5 selection_b=6-11 scaling=1.00 benchmark_Eint=2.395 benchmark_unit=kcal/mol group=HCNO contact=C-H
  C   -1.485547661  -1.164488879   0.027767246
  H   -0.629547661  -0.493488879   0.011767246
  H   -1.452547661  -1.772488879   0.929767246
  H   -2.403547661  -0.582488879   0.016767246
  H   -1.455547661  -1.811488879  -0.846232754
  C    1.113905893   0.873166886  -0.020820671
  C    0.363292051   1.817682826  -0.568024014
  H    1.211775835   0.773898680   1.052160828
  H    1.661819804   0.161714774  -0.624286694
  H   -0.184621859   2.529134937   0.035442009
  H    0.265671260   1.917550523  -1.640244898
