14
charge=0 charge_a=0 charge_b=0 selection_a=1-2 selection_b=3-14 scaling=1.00 benchmark_Eint=3.274 benchmark_unit=kcal/mol group=HCNO contact=C-H
  F    0.655496934  -0.274524357   1.568710612
  H    0.304496934  -0.127524357   0.728710612
  C   -0.321624886   0.134697602  -0.769700584
  C   -0.660810580  -1.211900497  -0.863624086
  C   -1.904780883  -1.647763706  -0.420098271
  C   -2.808961498  -0.738306819   0.117394599
  C   -2.470491410   0.607155452   0.210873352
  C   -1.226277949   1.043902425  -0.233052258
  H    0.645950746   0.473798893  -1.114981208
  H    0.043585622  -1.918267236  -1.281293838
  H   -2.167356319  -2.694509739  -0.492443846
  H   -3.776537130  -1.077408110   0.462675225
  H   -3.174172006   1.314658019   0.628987854
  H   -0.961535760   2.090112043  -0.160574622
