14
charge=0 charge_a=0 charge_b=0 selection_a=1-2 selection_b=3-14 scaling=1.10 benchmark_Eint=0.484 benchmark_unit=kcal/mol group=HCNO contact=C-H
  H    0.341976244  -0.556655337   0.461721869
  H    0.658976244  -1.072655337   0.889721869
  C   -0.687265383   1.118703273  -0.927916669
  C   -1.945496774   0.666400103  -0.541302379
  C   -2.566817917   1.212156462   0.576849683
  C   -1.930691833   2.209039228   1.308369576
  C   -0.673849525   2.661414377   0.922010752
  C   -0.051903744   2.116101334  -0.196784194
  H   -0.204064399   0.694357635  -1.797892869
  H   -2.438858384  -0.109408370  -1.110768388
  H   -3.544164674   0.859516865   0.877341995
  H   -2.413892816   2.633384865   2.178345777
  H   -0.179098831   3.437150871   1.491221295
  H    0.925888408   2.466758744  -0.498210614
