10
charge=0 charge_a=0 charge_b=0 selection_a=1-5 selection_b=6-10 scaling=1.00 benchmark_Eint=1.930 benchmark_unit=kcal/mol group=HCNO contact=C-H
  C   -1.485547661  -1.164488879   0.027767246
  H   -0.629547661  -0.493488879   0.011767246
  H   -1.452547661  -1.772488879   0.929767246
  H   -2.403547661  -0.582488879   0.016767246
  H   -1.455547661  -1.811488879  -0.846232754
  C    1.117701249   0.876970551  -0.021194806
  H    1.973441568   1.548297162  -0.037383954
  H    1.151061048   0.269076017   0.880863041
  H    0.199476554   1.458617286  -0.032125743
  H    1.147826732   0.229892227  -0.895132503
