6
charge=0 charge_a=0 charge_b=0 selection_a=1-2 selection_b=3-6 scaling=1.00 benchmark_Eint=3.111 benchmark_unit=kcal/mol group=HCNO contact=C-H
  F    0.655496934  -0.274524357   1.568710612
  H    0.304496934  -0.127524357   0.728710612
  C   -0.319912091   0.133980278  -0.765601586
  C   -1.389292341  -0.241992513  -0.384548649
  H    0.629086430   0.468356659  -1.103631530
  H   -2.338541311  -0.575413036  -0.046365049
