10
charge=0 charge_a=0 charge_b=0 selection_a=1-5 selection_b=6-10 scaling=1.25 benchmark_Eint=-0.295 benchmark_unit=kcal/mol group=HCNO contact=C-H
  C   -1.485547661  -1.164488879   0.027767246
  H   -0.629547661  -0.493488879   0.011767246
  H   -1.452547661  -1.772488879   0.929767246
  H   -2.403547661  -0.582488879   0.016767246
  H   -1.455547661  -1.811488879  -0.846232754
  C    1.500960770   1.177399451  -0.028358535
  H    2.356701089   1.848726061  -0.044547684
  H    1.534320569   0.569504917   0.873699312
  H    0.582736074   1.759046186  -0.039289473
  H    1.531086253   0.530321127  -0.902296232
