10
charge=0 charge_a=0 charge_b=0 selection_a=1-5 selection_b=6-10 scaling=1.15 benchmark_Eint=0.098 benchmark_unit=kcal/mol group=HCNO contact=C-H
  C   -1.485547661  -1.164488879   0.027767246
  H   -0.629547661  -0.493488879   0.011767246
  H   -1.452547661  -1.772488879   0.929767246
  H   -2.403547661  -0.582488879   0.016767246
  H   -1.455547661  -1.811488879  -0.846232754
  C    1.347727091   1.057282864  -0.025494355
  H    2.203467410   1.728609475  -0.041683503
  H    1.381086891   0.449388330   0.876563492
  H    0.429502396   1.638929599  -0.036425292
  H    1.377852574   0.410204540  -0.899432051
