9
charge=0 charge_a=0 charge_b=0 selection_a=1-5 selection_b=6-9 scaling=1.10 benchmark_Eint=0.586 benchmark_unit=kcal/mol group=HCNO contact=C-H
  C   -1.700000000   0.000000000   0.000000000
  H   -2.787765140   0.000000000  -0.000000000
  H   -1.337649723   1.026186765   0.000000000
  H   -1.336769018  -0.512274047   0.887247178
  H   -1.337354622  -0.511979565  -0.888678938
  B    2.026563721  -0.000685891   0.000507995
  H    0.839211731  -0.000284032   0.000210364
  H    2.620620151   1.028149168  -0.011714040
  H    2.620433372  -1.028884202   0.012258431
