9
charge=0 charge_a=0 charge_b=0 selection_a=1-5 selection_b=6-9 scaling=1.00 benchmark_Eint=1.946 benchmark_unit=kcal/mol group=HCNO contact=C-H
  C   -1.700000000   0.000000000   0.000000000
  H   -2.787765140   0.000000000  -0.000000000
  H   -1.337649723   1.026186765   0.000000000
  H   -1.336769018  -0.512274047   0.887247178
  H   -1.337354622  -0.511979565  -0.888678938
  B    1.820478969  -0.000616142   0.000456336
  H    0.633126978  -0.000214282   0.000158705
  H    2.414535399   1.028218918  -0.011765699
  H    2.414348619  -1.028814452   0.012206772
