17
charge=0 charge_a=0 charge_b=0 selection_a=1-5 selection_b=6-17 scaling=1.25 benchmark_Eint=-0.812 benchmark_unit=kcal/mol group=HCNO contact=C-H
  C   -1.485547661  -1.164488879   0.027767246
  H   -0.629547661  -0.493488879   0.011767246
  H   -1.452547661  -1.772488879   0.929767246
  H   -2.403547661  -0.582488879   0.016767246
  H   -1.455547661  -1.811488879  -0.846232754
  C    1.467042785   1.149983304  -0.027421360
  C    1.366814184   1.244820989  -1.412396104
  C    0.578523277   2.236777485  -1.985784068
  C   -0.109516652   3.133073086  -1.175346995
  C   -0.009134850   3.038814185   0.208346525
  C    0.779670914   2.046890008   0.782591155
  H    2.080480497   0.378516691   0.418610519
  H    1.901967691   0.546703996  -2.041537892
  H    0.500261449   2.309303895  -3.062107442
  H   -0.722954365   3.904539698  -1.621378874
  H   -0.544441558   3.736352393   0.838769537
  H    0.858339151   1.972170713   1.858753008
