8
charge=0 charge_a=0 charge_b=0 selection_a=1-4 selection_b=5-8 scaling=1.05 benchmark_Eint=1.051 benchmark_unit=kcal/mol group=HCNO contact=C-H
  C    0.052610641  -1.106577151  -1.495895895
  C    0.085610641  -1.817577151  -2.456895895
  H    0.022610641  -0.475577151  -0.642895895
  H    0.114610641  -2.448577151  -3.309895895
  C   -0.037215702   0.782770267   1.058166463
  C    1.155568778   0.866428848   1.038230905
  H   -1.095961517   0.709088137   1.075436158
  H    2.214218307   0.940969190   1.020457026
