12
charge=0 charge_a=0 charge_b=0 selection_a=1-6 selection_b=7-12 scaling=1.15 benchmark_Eint=0.122 benchmark_unit=kcal/mol group=HCNO contact=C-C
  C    0.000000000   0.000000000  -1.700000000
  C   -1.324750165   0.000000000  -1.700000000
  H    0.569437181   0.920034400  -1.700000000
  H    0.568432464  -0.920558601  -1.701181686
  H   -1.893182629   0.920558601  -1.698818314
  H   -1.894159417  -0.919202805  -1.700554680
  C   -0.000000000   0.000000000   1.687420000
  C    1.324750049  -0.000554401   1.687420000
  H   -0.569052102   0.920272626   1.687420000
  H   -0.568817663  -0.920320635   1.688601686
  H    1.893567712   0.919766234   1.686238314
  H    1.893774570  -0.919995420   1.687974680
