9
charge=0 charge_a=0 charge_b=0 selection_a=1-5 selection_b=6-9 scaling=1.25 benchmark_Eint=-0.397 benchmark_unit=kcal/mol group=HCNO contact=C-C
  C   -1.700000000   0.000000000   0.000000000
  H   -2.787765140   0.000000000  -0.000000000
  H   -1.337649723   1.026186765   0.000000000
  H   -1.336769018  -0.512274047   0.887247178
  H   -1.337354622  -0.511979565  -0.888678938
  C    1.983391502  -0.000671280   0.000497173
  C    1.983895170   0.960040250  -0.711657376
  H    1.982944454  -0.852959964   0.633169125
  H    1.984449938   1.812898542  -1.343514501
