18
charge=0 charge_a=0 charge_b=0 selection_a=1-6 selection_b=7-18 scaling=1.15 benchmark_Eint=-0.552 benchmark_unit=kcal/mol group=HCNO contact=C-C
  C    0.000000000   0.000000000  -1.700000000
  C   -1.324750165   0.000000000  -1.700000000
  H    0.569437181   0.920034400  -1.700000000
  H    0.568432464  -0.920558601  -1.701181686
  H   -1.893182629   0.920558601  -1.698818314
  H   -1.894159417  -0.919202805  -1.700554680
  C    0.000000000   0.000000000   1.602760000
  C    0.695982807  -1.205322750   1.602760000
  C    2.086721332  -1.204726974   1.602760000
  C    2.781351786  -0.000135214   1.602286714
  C    2.086223634   1.204176044   1.602783148
  C    0.694862852   1.204245584   1.603195643
  H   -1.081855212  -0.000465957   1.603046895
  H    0.154501967  -2.141471475   1.602503666
  H    2.626970440  -2.141736508   1.601743485
  H    3.863206998   0.000330742   1.601999818
  H    2.626849819   2.141336260   1.602543048
  H    0.152886304   2.140278393   1.603181645
