18
charge=0 charge_a=0 charge_b=0 selection_a=1-6 selection_b=7-18 scaling=1.00 benchmark_Eint=2.533 benchmark_unit=kcal/mol group=HCNO contact=C-C
  C    0.000000000   0.000000000  -1.700000000
  C   -1.324750165   0.000000000  -1.700000000
  H    0.569437181   0.920034400  -1.700000000
  H    0.568432464  -0.920558601  -1.701181686
  H   -1.893182629   0.920558601  -1.698818314
  H   -1.894159417  -0.919202805  -1.700554680
  C    0.000000000   0.000000000   1.171980000
  C    0.695982807  -1.205322750   1.171980000
  C    2.086721332  -1.204726974   1.171980000
  C    2.781351786  -0.000135214   1.171506714
  C    2.086223634   1.204176044   1.172003148
  C    0.694862852   1.204245584   1.172415643
  H   -1.081855212  -0.000465957   1.172266895
  H    0.154501967  -2.141471475   1.171723666
  H    2.626970440  -2.141736508   1.170963485
  H    3.863206998   0.000330742   1.171219818
  H    2.626849819   2.141336260   1.171763048
  H    0.152886304   2.140278393   1.172401645
