9
charge=0 charge_a=0 charge_b=0 selection_a=1-5 selection_b=6-9 scaling=1.00 benchmark_Eint=1.845 benchmark_unit=kcal/mol group=HCNO contact=C-C
  C   -1.700000000   0.000000000   0.000000000
  H   -2.787765140   0.000000000  -0.000000000
  H   -1.337649723   1.026186765   0.000000000
  H   -1.336769018  -0.512274047   0.887247178
  H   -1.337354622  -0.511979565  -0.888678938
  C    1.301187093  -0.000440388   0.000326166
  C    1.301690760   0.960271143  -0.711828383
  H    1.300740044  -0.852729072   0.632998118
  H    1.302245528   1.813129434  -1.343685508
