24
charge=0 charge_a=0 charge_b=0 selection_a=1-12 selection_b=13-24 scaling=1.15 benchmark_Eint=-1.979 benchmark_unit=kcal/mol group=HCNO contact=C-C
  C    0.000000000   0.000000000  -1.700000000
  C   -1.391831527   0.000000000  -1.700000000
  C   -2.086751840   1.204674130  -1.700000000
  C   -1.390926964   2.408576334  -1.699526714
  C   -0.000398755   2.408810669  -1.700023148
  C    0.695408878   1.203930356  -1.700435643
  H    0.540576201  -0.937117009  -1.700286895
  H   -1.931767565  -0.937040559  -1.699743666
  H   -3.168350417   1.203978654  -1.698983485
  H   -1.931503165   3.345693343  -1.699239818
  H    0.540840601   3.345616893  -1.699783048
  H    1.777025417   1.202641463  -1.700421645
  C    0.000000000   0.000000000   1.479680000
  C   -0.695277140  -1.205729944   1.479680000
  C    0.001178893  -2.409516883   1.479680000
  C    1.391700684  -2.408129353   1.479206714
  C    2.086529765  -1.203645521   1.479703148
  C    1.390338370   0.001013092   1.480115643
  H   -0.541775171   0.936424360   1.479966895
  H   -1.776746424  -1.205380886   1.479423666
  H   -0.539726602  -3.346147660   1.478663485
  H    1.933475855  -3.344553713   1.478919818
  H    3.168447108  -1.202748468   1.479463048
  H    1.929533799   0.938650702   1.480101645
