8
charge=0 charge_a=0 charge_b=0 selection_a=1-4 selection_b=5-8 scaling=1.10 benchmark_Eint=0.466 benchmark_unit=kcal/mol group=HCNO contact=C-C
  C    0.000000000   0.000000000  -1.700000000
  C   -1.195880847   0.000000000  -1.700000000
  H    1.061446885   0.000714097  -1.700000000
  H   -2.257300137   0.000279700  -1.700107731
  C    0.000000000   0.000000000   1.588480000
  C    1.195880434  -0.000993808   1.588480000
  H   -1.061445925   0.001596187   1.588480000
  H    2.257299590  -0.001596176   1.588587731
