6
charge=0 charge_a=0 charge_b=0 selection_a=1-2 selection_b=3-6 scaling=1.10 benchmark_Eint=-6.232 benchmark_unit=kcal/mol group=HCNO contact=N-H
  F    0.655496934  -0.274524357   1.568710612
  H    0.304496934  -0.127524357   0.728710612
  N   -0.228890345   0.095860059  -0.547771767
  H   -1.241642424   0.086559385  -0.535909057
  H    0.069696011  -0.612449209  -1.205867633
  H    0.058569258   0.991430724  -0.920054133
