6
charge=0 charge_a=0 charge_b=0 selection_a=1-2 selection_b=3-6 scaling=1.00 benchmark_Eint=2.783 benchmark_unit=kcal/mol group=HCNO contact=N-H
  H    0.341976244  -0.556655337   0.461721869
  H    0.658976244  -1.072655337   0.889721869
  N   -0.514776840   0.837933279  -0.695029930
  H   -0.899649311   1.595286502  -0.143501801
  H   -1.271902049   0.452671867  -1.244830860
  H    0.148596181   1.244563969  -1.341452173
