7
charge=0 charge_a=0 charge_b=0 selection_a=1-3 selection_b=4-7 scaling=1.05 benchmark_Eint=0.497 benchmark_unit=kcal/mol group=HCNO contact=N-H
  C   -2.735331436  -0.059932766   0.222949889
  H   -3.797331436  -0.083932766   0.308949889
  N   -1.594331436  -0.034932766   0.129949889
  C    1.325374823   0.029039764  -0.108027921
  C    2.517041728   0.055808205  -0.204694548
  H    0.267688248   0.005865211  -0.021818586
  H    3.574737258   0.079734116  -0.290244049
