8
charge=0 charge_a=0 charge_b=0 selection_a=1-4 selection_b=5-8 scaling=1.00 benchmark_Eint=2.373 benchmark_unit=kcal/mol group=HCNO contact=N-H
  B    1.692179578   0.552343483   0.883749572
  H    0.681179578   0.222343483   0.355749572
  H    2.735179578   0.176343483   0.456749572
  H    1.661179578   1.257343483   1.838749572
  N   -1.277756653  -0.417071906  -0.667315047
  H   -1.876627640   0.377575320  -0.856479865
  H   -1.806125395  -1.060406162  -0.092081611
  H   -1.103349424  -0.878287856  -1.550568106
