8
charge=0 charge_a=0 charge_b=0 selection_a=1-5 selection_b=6-8 scaling=1.05 benchmark_Eint=1.087 benchmark_unit=kcal/mol group=HCNO contact=N-H
  C   -1.485547661  -1.164488879   0.027767246
  H   -0.629547661  -0.493488879   0.011767246
  H   -1.452547661  -1.772488879   0.929767246
  H   -2.403547661  -0.582488879   0.016767246
  H   -1.455547661  -1.811488879  -0.846232754
  C    1.981892187   1.553562684  -0.037044714
  H    2.820042968   2.211636739  -0.053101040
  N    1.080807425   0.847221708  -0.020202008
