5
charge=0 charge_a=0 charge_b=0 selection_a=1-3 selection_b=4-5 scaling=1.00 benchmark_Eint=2.210 benchmark_unit=kcal/mol group=HCNO contact=N-H
  C   -2.735331436  -0.059932766   0.222949889
  H   -3.797331436  -0.083932766   0.308949889
  N   -1.594331436  -0.034932766   0.129949889
  H    0.468574009   0.010266740  -0.038192272
  H    1.207518708   0.026457465  -0.098421770
