5
charge=0 charge_a=0 charge_b=0 selection_a=1-2 selection_b=3-5 scaling=1.15 benchmark_Eint=-5.269 benchmark_unit=kcal/mol group=HCNO contact=N-H
  F    0.655496934  -0.274524357   1.568710612
  H    0.304496934  -0.127524357   0.728710612
  C   -0.731682064   0.306430950  -1.751034002
  H   -1.138151218   0.476027556  -2.721516263
  N   -0.295849221   0.123902665  -0.708015230
