8
charge=0 charge_a=0 charge_b=0 selection_a=1-4 selection_b=5-8 scaling=1.05 benchmark_Eint=1.517 benchmark_unit=kcal/mol group=HCNO contact=N-H
  B    1.692179578   0.552343483   0.883749572
  H    0.681179578   0.222343483   0.355749572
  H    2.735179578   0.176343483   0.456749572
  H    1.661179578   1.257343483   1.838749572
  N   -1.375642158  -0.449022664  -0.718436261
  H   -1.974513145   0.345624561  -0.907601079
  H   -1.904010900  -1.092356921  -0.143202824
  H   -1.201234930  -0.910238614  -1.601689320
