16
charge=0 charge_a=0 charge_b=0 selection_a=1-11 selection_b=12-16 scaling=1.25 benchmark_Eint=-0.852 benchmark_unit=kcal/mol group=HCNO contact=N-H
  C   -0.175446694  -2.007467188   1.577808032
  C   -0.829446694  -2.993467188   2.306808032
  C   -2.215446694  -3.053467188   2.245808032
  C   -2.885446694  -2.126467188   1.458808032
  C   -2.138446694  -1.179467188   0.767808032
  N   -0.807446694  -1.112467188   0.818808032
  H    0.906553306  -1.933467188   1.603808032
  H   -0.263446694  -3.693467188   2.905808032
  H   -2.760446694  -3.806467188   2.798808032
  H   -3.963446694  -2.133467188   1.379808032
  H   -2.630446694  -0.441467188   0.144808032
  C    0.981373305   1.352096194  -0.995181912
  H    0.432428077   0.595781802  -0.438512641
  H    1.492142250   2.014760447  -0.299230641
  H    1.712567763   0.869952769  -1.638968664
  H    0.288057462   1.929839083  -1.602562596
