19
charge=0 charge_a=0 charge_b=0 selection_a=1-7 selection_b=8-19 scaling=1.15 benchmark_Eint=0.386 benchmark_unit=kcal/mol group=HCNO contact=N-C
  N    0.907607368  -0.903143900  -0.959468583
  C    2.253607368  -0.330143900  -0.922468583
  H    0.540607368  -0.905143900  -1.901468583
  H    2.615607368  -0.329143900   0.105531417
  H    2.209607368   0.708856100  -1.249468583
  H    2.996607368  -0.847143900  -1.541468583
  H    0.914607368  -1.864143900  -0.645468583
  C   -0.984175395   0.979335377   1.040411751
  C   -1.812215504   1.289198313  -0.034543847
  C   -2.911654650   0.486351062  -0.318839213
  C   -3.182991928  -0.625770848   0.470536450
  C   -2.356142248  -0.935249673   1.544832250
  C   -1.256291786  -0.132203238   1.830017080
  H   -0.129085228   1.604033508   1.261735164
  H   -1.599688146   2.154083081  -0.648044018
  H   -3.554155698   0.727125976  -1.154947366
  H   -4.038082093  -1.250468979   0.249213037
  H   -2.567479177  -1.800518552   2.158992220
  H   -0.612065474  -0.371986528   2.665105358
