9
charge=0 charge_a=0 charge_b=0 selection_a=1-5 selection_b=6-9 scaling=1.00 benchmark_Eint=1.972 benchmark_unit=kcal/mol group=HCNO contact=N-C
  C   -1.700000000   0.000000000   0.000000000
  H   -2.787765140   0.000000000  -0.000000000
  H   -1.337649723   1.026186765   0.000000000
  H   -1.336769018  -0.512274047   0.887247178
  H   -1.337354622  -0.511979565  -0.888678938
  N    1.258447866  -0.000425922   0.000315453
  H    1.632018814   0.871116182  -0.355708573
  H    1.631235853  -0.743985845  -0.575960312
  H    1.630624413  -0.127916889   0.932251433
