8
charge=0 charge_a=0 charge_b=0 selection_a=1-4 selection_b=5-8 scaling=1.15 benchmark_Eint=0.843 benchmark_unit=kcal/mol group=HCNO contact=N-C
  C    0.000000000   0.000000000  -1.700000000
  C   -1.195880847   0.000000000  -1.700000000
  H    1.061446885   0.000714097  -1.700000000
  H   -2.257300137   0.000279700  -1.700107731
  N    0.000000000   0.000000000   1.918120000
  H    0.912519014   0.232238536   2.291306697
  H   -0.254759039  -0.905534667   2.291015159
  H   -0.656677614   0.673295680   2.290573271
