11
charge=0 charge_a=0 charge_b=0 selection_a=1-7 selection_b=8-11 scaling=1.00 benchmark_Eint=2.416 benchmark_unit=kcal/mol group=HCNO contact=N-C
  N    0.907607368  -0.903143900  -0.959468583
  C    2.253607368  -0.330143900  -0.922468583
  H    0.540607368  -0.905143900  -1.901468583
  H    2.615607368  -0.329143900   0.105531417
  H    2.209607368   0.708856100  -1.249468583
  H    2.996607368  -0.847143900  -1.541468583
  H    0.914607368  -1.864143900  -0.645468583
  C   -0.856509073   0.852296898   0.905450502
  C   -1.802194824   0.162680871   0.660013756
  H   -0.016967597   1.463968540   1.123849020
  H   -2.641547059  -0.449501013   0.442454189
