19
charge=0 charge_a=0 charge_b=0 selection_a=1-7 selection_b=8-19 scaling=1.05 benchmark_Eint=1.429 benchmark_unit=kcal/mol group=HCNO contact=N-C
  N    0.907607368  -0.903143900  -0.959468583
  C    2.253607368  -0.330143900  -0.922468583
  H    0.540607368  -0.905143900  -1.901468583
  H    2.615607368  -0.329143900   0.105531417
  H    2.209607368   0.708856100  -1.249468583
  H    2.996607368  -0.847143900  -1.541468583
  H    0.914607368  -1.864143900  -0.645468583
  C   -0.819631851   0.815601033   0.866466094
  C   -1.647671961   1.125463969  -0.208489504
  C   -2.747111107   0.322616717  -0.492784871
  C   -3.018448384  -0.789505193   0.296590793
  C   -2.191598704  -1.098984017   1.370886592
  C   -1.091748243  -0.295937582   1.656071423
  H    0.035458315   1.440299164   1.087789506
  H   -1.435144602   1.990348736  -0.821989676
  H   -3.389612155   0.563391631  -1.328893023
  H   -3.873538550  -1.414203324   0.075267380
  H   -2.402935633  -1.964252896   1.985046562
  H   -0.447521931  -0.535720872   2.491159701
