7
charge=0 charge_a=0 charge_b=0 selection_a=1-3 selection_b=4-7 scaling=1.25 benchmark_Eint=0.401 benchmark_unit=kcal/mol group=HCNO contact=N-C
  C   -2.735331436  -0.059932766   0.222949889
  H   -3.797331436  -0.083932766   0.308949889
  N   -1.594331436  -0.034932766   0.129949889
  C    2.181633314   0.047800905  -0.177819367
  C    2.219895348   0.998160250   0.547083477
  H    2.147728017  -0.796157759  -0.820667875
  H    2.253984408   1.841496482   1.190692780
