12
charge=0 charge_a=0 charge_b=0 selection_a=1-7 selection_b=8-12 scaling=1.25 benchmark_Eint=-0.275 benchmark_unit=kcal/mol group=HCNO contact=N-C
  N    0.907607368  -0.903143900  -0.959468583
  C    2.253607368  -0.330143900  -0.922468583
  H    0.540607368  -0.905143900  -1.901468583
  H    2.615607368  -0.329143900   0.105531417
  H    2.209607368   0.708856100  -1.249468583
  H    2.996607368  -0.847143900  -1.541468583
  H    0.914607368  -1.864143900  -0.645468583
  C   -1.117423068   1.110951363   1.180528086
  H   -1.734825039   1.724692292   1.832731949
  H   -0.119270242   1.021855774   1.604921667
  H   -1.560087659   0.122714506   1.085633548
  H   -1.053345865   1.575670882   0.199042029
