18
charge=0 charge_a=0 charge_b=0 selection_a=1-11 selection_b=12-18 scaling=1.00 benchmark_Eint=2.483 benchmark_unit=kcal/mol group=HCNO contact=N-N
  C   -0.175446694  -2.007467188   1.577808032
  C   -0.829446694  -2.993467188   2.306808032
  C   -2.215446694  -3.053467188   2.245808032
  C   -2.885446694  -2.126467188   1.458808032
  C   -2.138446694  -1.179467188   0.767808032
  N   -0.807446694  -1.112467188   0.818808032
  H    0.906553306  -1.933467188   1.603808032
  H   -0.263446694  -3.693467188   2.905808032
  H   -2.760446694  -3.806467188   2.798808032
  H   -3.963446694  -2.133467188   1.379808032
  H   -2.630446694  -0.441467188   0.144808032
  N    0.956985822   1.318496111  -0.970451279
  C    0.858817255   2.558333537  -0.199361084
  H    0.566611020   1.435525272  -1.895637039
  H    1.274192337   2.396798760   0.795223783
  H   -0.192133318   2.818078839  -0.071215579
  H    1.368205777   3.422899884  -0.641568462
  H    1.922232176   1.043427410  -1.092117564
