7
charge=0 charge_a=0 charge_b=0 selection_a=1-3 selection_b=4-7 scaling=1.00 benchmark_Eint=2.266 benchmark_unit=kcal/mol group=HCNO contact=N-N
  C   -2.735331436  -0.059932766   0.222949889
  H   -3.797331436  -0.083932766   0.308949889
  N   -1.594331436  -0.034932766   0.129949889
  N    1.943808887   0.042590028  -0.158434905
  H    2.362985288   0.634417657   0.548618985
  H    2.236808539   0.398315439  -1.059299288
  H    2.346239821  -0.879682184  -0.054813912
