18
charge=0 charge_a=0 charge_b=0 selection_a=1-11 selection_b=12-18 scaling=1.15 benchmark_Eint=1.491 benchmark_unit=kcal/mol group=HCNO contact=N-N
  C   -0.175446694  -2.007467188   1.577808032
  C   -0.829446694  -2.993467188   2.306808032
  C   -2.215446694  -3.053467188   2.245808032
  C   -2.885446694  -2.126467188   1.458808032
  C   -2.138446694  -1.179467188   0.767808032
  N   -0.807446694  -1.112467188   0.818808032
  H    0.906553306  -1.933467188   1.603808032
  H   -0.263446694  -3.693467188   2.905808032
  H   -2.760446694  -3.806467188   2.798808032
  H   -3.963446694  -2.133467188   1.379808032
  H   -2.630446694  -0.441467188   0.144808032
  N    1.221505358   1.682940362  -1.238692791
  C    1.123336792   2.922777788  -0.467602595
  H    0.831130557   1.799969522  -2.163878550
  H    1.538711874   2.761243010   0.526982271
  H    0.072386219   3.182523089  -0.339457090
  H    1.632725314   3.787344135  -0.909809974
  H    2.186751713   1.407871661  -1.360359075
