14
charge=0 charge_a=0 charge_b=0 selection_a=1-7 selection_b=8-14 scaling=1.05 benchmark_Eint=2.045 benchmark_unit=kcal/mol group=HCNO contact=N-N
  N    0.907607368  -0.903143900  -0.959468583
  C    2.253607368  -0.330143900  -0.922468583
  H    0.540607368  -0.905143900  -1.901468583
  H    2.615607368  -0.329143900   0.105531417
  H    2.209607368   0.708856100  -1.249468583
  H    2.996607368  -0.847143900  -1.541468583
  H    0.914607368  -1.864143900  -0.645468583
  N   -1.231078634   1.225024386   1.301423186
  C   -2.576944202   0.651679739   1.264874766
  H   -1.238077370   2.185859478   0.987092240
  H   -2.534563597  -0.386046533   1.595264034
  H   -2.936635375   0.647638485   0.235801431
  H   -3.321098426   1.171638867   1.879997515
  H   -0.864152833   1.227376280   2.243509130
