11
charge=0 charge_a=0 charge_b=0 selection_a=1-7 selection_b=8-11 scaling=1.00 benchmark_Eint=2.358 benchmark_unit=kcal/mol group=HCNO contact=N-N
  N    0.907607368  -0.903143900  -0.959468583
  C    2.253607368  -0.330143900  -0.922468583
  H    0.540607368  -0.905143900  -1.901468583
  H    2.615607368  -0.329143900   0.105531417
  H    2.209607368   0.708856100  -1.249468583
  H    2.996607368  -0.847143900  -1.541468583
  H    0.914607368  -1.864143900  -0.645468583
  N   -1.210748229   1.204793963   1.279931090
  H   -2.090315394   0.751728735   1.496697096
  H   -1.429691876   2.096715745   0.855095575
  H   -0.747587431   1.396686850   2.158528378
