11
charge=0 charge_a=0 charge_b=0 selection_a=1-2 selection_b=3-11 scaling=1.00 benchmark_Eint=1.867 benchmark_unit=kcal/mol group=HCNO contact=O-H
  F    0.655496934  -0.274524357   1.568710612
  H    0.304496934  -0.127524357   0.728710612
  C   -0.043833364  -0.702258143  -1.593627784
  C   -0.702637323  -0.178537539  -2.654765886
  C   -1.322084007   1.025123935  -2.185247129
  C   -0.988490912   1.134421857  -0.877257981
  H   -1.213036609   1.857074895  -0.114220750
  H   -1.930385473   1.709287268  -2.749613022
  H    0.557147373  -1.581656301  -1.455707398
  H   -0.745845678  -0.591325739  -3.646749727
  O   -0.207666909   0.086971611  -0.496980637
