8
charge=0 charge_a=0 charge_b=0 selection_a=1-6 selection_b=7-8 scaling=1.10 benchmark_Eint=-4.895 benchmark_unit=kcal/mol group=HCNO contact=O-H
  C    0.278322841  -0.303120487  -2.583741411
  H   -0.093677159  -1.181120487  -3.119741411
  H    1.339322841  -1.257120487  -1.244741411
  H    1.114322841   0.125879513  -3.142741411
  H   -0.518677159   0.434879513  -2.537741411
  O    0.634322841  -0.607120487  -1.240741411
  F   -0.329294002   0.315172530   0.644102148
  H    0.055546650  -0.053164582  -0.108649766
