12
charge=0 charge_a=0 charge_b=0 selection_a=1-2 selection_b=3-12 scaling=1.05 benchmark_Eint=-1.463 benchmark_unit=kcal/mol group=HCNO contact=O-H
  F    0.655496934  -0.274524357   1.568710612
  H    0.304496934  -0.127524357   0.728710612
  C   -0.676626417   0.283373457  -1.619276898
  O   -0.216585624   0.090706800  -0.518324571
  C   -1.956121826   1.069584386  -1.820604676
  C   -0.005666527  -0.248037772  -2.868028648
  H   -2.710087376   0.439330942  -2.298028540
  H   -0.694324822  -0.882970823  -3.429005272
  H   -1.782171074   1.915028407  -2.489165476
  H   -2.330383570   1.425421148  -0.866012436
  H    0.882266693  -0.815951275  -2.602542583
  H    0.270979648   0.577502667  -3.526465340
