14
charge=0 charge_a=0 charge_b=0 selection_a=1-5 selection_b=6-14 scaling=1.00 benchmark_Eint=2.174 benchmark_unit=kcal/mol group=HCNO contact=O-H
  C   -1.485547661  -1.164488879   0.027767246
  H   -0.629547661  -0.493488879   0.011767246
  H   -1.452547661  -1.772488879   0.929767246
  H   -2.403547661  -0.582488879   0.016767246
  H   -1.455547661  -1.811488879  -0.846232754
  C    1.941414561   0.675987076  -0.895815633
  C    2.826430012   1.662396105  -0.616414706
  C    2.301119335   2.359576014   0.519785922
  C    1.140057385   1.739304524   0.838006641
  H    0.401086228   1.898783659   1.601788047
  H    2.733895689   3.205018418   1.024316167
  H    1.902089774  -0.093421423  -1.644150534
  H    3.737829728   1.871863022  -1.147232160
  O    0.902752460   0.707648248  -0.016873878
