15
charge=0 charge_a=0 charge_b=0 selection_a=1-5 selection_b=6-15 scaling=1.00 benchmark_Eint=1.950 benchmark_unit=kcal/mol group=HCNO contact=O-H
  C   -1.485547661  -1.164488879   0.027767246
  H   -0.629547661  -0.493488879   0.011767246
  H   -1.452547661  -1.772488879   0.929767246
  H   -2.403547661  -0.582488879   0.016767246
  H   -1.455547661  -1.811488879  -0.846232754
  C    1.829240388   1.433902220  -0.034191409
  O    0.878105669   0.688328158  -0.016413190
  C    1.742959428   2.846801809   0.506215241
  C    3.167660847   1.005682733  -0.597418493
  H    1.955250932   3.564338695  -0.289831324
  H    3.477218118   1.680910251  -1.397622902
  H    2.495027720   3.004249836   1.281851369
  H    0.752748190   3.032926882   0.909671756
  H    3.104949407  -0.010085459  -0.979146479
  H    3.935688460   1.059269668   0.176436161
