11
charge=0 charge_a=0 charge_b=0 selection_a=1-6 selection_b=7-11 scaling=1.00 benchmark_Eint=2.208 benchmark_unit=kcal/mol group=HCNO contact=O-H
  C    0.278322841  -0.303120487  -2.583741411
  H   -0.093677159  -1.181120487  -3.119741411
  H    1.339322841  -1.257120487  -1.244741411
  H    1.114322841   0.125879513  -3.142741411
  H   -0.518677159   0.434879513  -2.537741411
  O    0.634322841  -0.607120487  -1.240741411
  C   -0.609556348   0.583416082   1.192297919
  H   -0.155612747   0.148939437   0.304379989
  H    0.152377000   0.725372227   1.956276340
  H   -1.053337026   1.543279036   0.940721250
  H   -1.380389079  -0.085059850   1.569580079
