8
charge=0 charge_a=0 charge_b=0 selection_a=1-3 selection_b=4-8 scaling=1.25 benchmark_Eint=-0.545 benchmark_unit=kcal/mol group=HCNO contact=O-H
  H   -1.004584200  -0.486313027   1.938960870
  H   -0.430584200   0.925686973   1.990960870
  O   -0.518584200   0.158686973   1.419960870
  C    0.673975615  -0.206236808  -1.845445736
  H    0.302858631  -0.092674863  -0.829272095
  H   -0.038873938  -0.785698326  -2.428906844
  H    0.800103273   0.774105561  -2.297761612
  H    1.631066457  -0.722954987  -1.826355309
