14
charge=0 charge_a=0 charge_b=0 selection_a=1-4 selection_b=5-14 scaling=1.10 benchmark_Eint=0.649 benchmark_unit=kcal/mol group=HCNO contact=O-H
  B    1.692179578   0.552343483   0.883749572
  H    0.681179578   0.222343483   0.355749572
  H    2.735179578   0.176343483   0.456749572
  H    1.661179578   1.257343483   1.838749572
  C   -2.300270151  -0.750830022  -1.201328032
  O   -1.271128775  -0.414908503  -0.663853604
  C   -2.969085043   0.113850338  -2.250510340
  C   -2.988188174  -2.055933217  -0.861562755
  H   -3.968115034   0.401957745  -1.915025316
  H   -4.011468294  -1.871137639  -0.528646265
  H   -3.097149940  -0.445354167  -3.179433212
  H   -2.376071759   1.003959615  -2.434843515
  H   -2.437957214  -2.576773774  -0.082200833
  H   -3.053621597  -2.688507242  -1.748781764
