12
charge=0 charge_a=0 charge_b=0 selection_a=1-2 selection_b=3-12 scaling=1.10 benchmark_Eint=0.260 benchmark_unit=kcal/mol group=HCNO contact=O-H
  H    0.341976244  -0.556655337   0.461721869
  H    0.658976244  -1.072655337   0.889721869
  C   -1.075577669   1.750782578  -1.452199504
  O   -0.558912294   0.909775216  -0.754619754
  C   -1.015303133   3.223290943  -1.100268978
  C   -1.816508937   1.388522724  -2.721748501
  H   -2.025369877   3.614373808  -0.957313163
  H   -2.843499662   1.756928706  -2.681102694
  H   -0.569437274   3.792259386  -1.918490553
  H   -0.437210793   3.367493038  -0.193101407
  H   -1.819414711   0.310189159  -2.858211971
  H   -1.343324383   1.865228642  -3.582234902
