7
charge=0 charge_a=0 charge_b=0 selection_a=1-3 selection_b=4-7 scaling=1.15 benchmark_Eint=-1.811 benchmark_unit=kcal/mol group=HCNO contact=O-H
  H   -1.004584200  -0.486313027   1.938960870
  H   -0.430584200   0.925686973   1.990960870
  O   -0.518584200   0.158686973   1.419960870
  C    0.489436740  -0.149767838  -1.340150778
  C    0.897165965  -0.275373278  -2.457339730
  H    0.127298774  -0.038953476  -0.348563026
  H    1.258861553  -0.387083928  -3.448958624
