14
charge=0 charge_a=0 charge_b=0 selection_a=1-4 selection_b=5-14 scaling=1.15 benchmark_Eint=-2.065 benchmark_unit=kcal/mol group=HCNO contact=O-H
  C    0.052610641  -1.106577151  -1.495895895
  C    0.085610641  -1.817577151  -2.456895895
  H    0.022610641  -0.475577151  -0.642895895
  H    0.114610641  -2.448577151  -3.309895895
  C   -0.064524720   1.357169933   1.834652857
  O   -0.030364056   0.638657312   0.863351327
  C    0.678562311   2.677016275   1.874606558
  C   -0.850740142   0.985784445   3.073968849
  H    1.414897951   2.666330428   2.681645985
  H   -0.196411002   0.965894694   3.947778195
  H   -0.011336738   3.495953250   2.087654754
  H    1.178715312   2.853264144   0.927652671
  H   -1.316917270   0.012620792   2.943334284
  H   -1.618664008   1.736181406   3.270911321
