8
charge=0 charge_a=0 charge_b=0 selection_a=1-6 selection_b=7-8 scaling=1.15 benchmark_Eint=-0.065 benchmark_unit=kcal/mol group=HCNO contact=O-H
  C    0.278322841  -0.303120487  -2.583741411
  H   -0.093677159  -1.181120487  -3.119741411
  H    1.339322841  -1.257120487  -1.244741411
  H    1.114322841   0.125879513  -3.142741411
  H   -0.518677159   0.434879513  -2.537741411
  O    0.634322841  -0.607120487  -1.240741411
  H   -0.265791286   0.254393070   0.519890242
  H   -0.575262368   0.550592768   1.125218573
