10
charge=0 charge_a=0 charge_b=0 selection_a=1-6 selection_b=7-10 scaling=1.15 benchmark_Eint=-2.102 benchmark_unit=kcal/mol group=HCNO contact=O-H
  C    0.278322841  -0.303120487  -2.583741411
  H   -0.093677159  -1.181120487  -3.119741411
  H    1.339322841  -1.257120487  -1.244741411
  H    1.114322841   0.125879513  -3.142741411
  H   -0.518677159   0.434879513  -2.537741411
  O    0.634322841  -0.607120487  -1.240741411
  C   -0.581146190   0.556224268   1.136727385
  C   -1.079744252   1.033419719   2.113362155
  H   -0.138185561   0.132259600   0.270292251
  H   -1.522044263   1.456875642   2.980349342
