14
charge=0 charge_a=0 charge_b=0 selection_a=1-5 selection_b=6-14 scaling=1.10 benchmark_Eint=0.332 benchmark_unit=kcal/mol group=HCNO contact=O-H
  C   -1.485547661  -1.164488879   0.027767246
  H   -0.629547661  -0.493488879   0.011767246
  H   -1.452547661  -1.772488879   0.929767246
  H   -2.403547661  -0.582488879   0.016767246
  H   -1.455547661  -1.811488879  -0.846232754
  C    2.094589803   0.796057855  -0.898678722
  C    2.979605254   1.782466884  -0.619277795
  C    2.454294576   2.479646793   0.516922833
  C    1.293232626   1.859375303   0.835143553
  H    0.554261469   2.018854438   1.598924958
  H    2.887070931   3.325089197   1.021453079
  H    2.055265015   0.026649356  -1.647013622
  H    3.891004969   1.991933801  -1.150095248
  O    1.055927701   0.827719027  -0.019736966
