12
charge=0 charge_a=0 charge_b=0 selection_a=1-2 selection_b=3-12 scaling=1.25 benchmark_Eint=-7.545 benchmark_unit=kcal/mol group=HCNO contact=O-H
  F    0.655496934  -0.274524357   1.568710612
  H    0.304496934  -0.127524357   0.728710612
  C   -0.775880238   0.324941296  -1.856807409
  O   -0.315839445   0.132274639  -0.755855082
  C   -2.055375647   1.111152225  -2.058135187
  C   -0.104920348  -0.206469932  -3.105559159
  H   -2.809341197   0.480898781  -2.535559051
  H   -0.793578642  -0.841402984  -3.666535783
  H   -1.881424894   1.956596246  -2.726695987
  H   -2.429637390   1.466988988  -1.103542947
  H    0.783012872  -0.774383435  -2.840073094
  H    0.171725828   0.619070506  -3.763995851
