8
charge=0 charge_a=0 charge_b=0 selection_a=1-3 selection_b=4-8 scaling=1.05 benchmark_Eint=1.117 benchmark_unit=kcal/mol group=HCNO contact=O-H
  H   -1.004584200  -0.486313027   1.938960870
  H   -0.430584200   0.925686973   1.990960870
  O   -0.518584200   0.158686973   1.419960870
  C    0.542582755  -0.166030541  -1.485672492
  H    0.171465771  -0.052468595  -0.469498851
  H   -0.170266798  -0.745492058  -2.069133600
  H    0.668710413   0.814311829  -1.937988368
  H    1.499673597  -0.682748719  -1.466582066
