15
charge=0 charge_a=0 charge_b=0 selection_a=1-3 selection_b=4-15 scaling=1.15 benchmark_Eint=0.410 benchmark_unit=kcal/mol group=HCNO contact=O-C
  H   -1.004584200  -0.486313027   1.938960870
  H   -0.430584200   0.925686973   1.990960870
  O   -0.518584200   0.158686973   1.419960870
  C    0.577358896  -0.176672053  -1.580894751
  C    1.353369653  -1.259026548  -1.176529752
  C    0.829125728  -2.546293582  -1.224131139
  C   -0.470100550  -2.751522926  -1.675179908
  C   -1.245392621  -1.670379062  -2.079678551
  C   -0.721346647  -0.382337243  -2.032677599
  H    0.985268173   0.824661846  -1.544132766
  H    2.363471524  -1.097941119  -0.825357864
  H    1.432346725  -3.386858858  -0.908803618
  H   -0.878009828  -3.752856826  -1.711941892
  H   -2.256213179  -1.830253860  -2.430716795
  H   -1.323427477   0.459579839  -2.346636674
