8
charge=0 charge_a=0 charge_b=0 selection_a=1-3 selection_b=4-8 scaling=1.00 benchmark_Eint=1.782 benchmark_unit=kcal/mol group=HCNO contact=O-C
  H   -1.004584200  -0.486313027   1.938960870
  H   -0.430584200   0.925686973   1.990960870
  O   -0.518584200   0.158686973   1.419960870
  C    0.422123167  -0.129915209  -1.156598455
  H    0.793067674  -0.243901298  -2.172787583
  H    0.082998234   0.893344523  -1.007297415
  H   -0.407111621  -0.813605963  -0.993792988
  H    1.220286835  -0.353222643  -0.452003856
