12
charge=0 charge_a=0 charge_b=0 selection_a=1-6 selection_b=7-12 scaling=1.05 benchmark_Eint=1.444 benchmark_unit=kcal/mol group=HCNO contact=O-C
  C    0.278322841  -0.303120487  -2.583741411
  H   -0.093677159  -1.181120487  -3.119741411
  H    1.339322841  -1.257120487  -1.244741411
  H    1.114322841   0.125879513  -3.142741411
  H   -0.518677159   0.434879513  -2.537741411
  O    0.634322841  -0.607120487  -1.240741411
  C   -0.616720382   0.590272893   1.206310836
  C    0.184966738  -0.135635554   1.971371415
  H   -0.337577479   1.578512979   0.865454894
  H   -1.585306129   0.225625149   0.891003569
  H    1.153552485   0.229012191   2.286678682
  H   -0.093860759  -1.123027574   2.312653155
