10
charge=0 charge_a=0 charge_b=0 selection_a=1-6 selection_b=7-10 scaling=1.15 benchmark_Eint=0.803 benchmark_unit=kcal/mol group=HCNO contact=O-C
  C    0.278322841  -0.303120487  -2.583741411
  H   -0.093677159  -1.181120487  -3.119741411
  H    1.339322841  -1.257120487  -1.244741411
  H    1.114322841   0.125879513  -3.142741411
  H   -0.518677159   0.434879513  -2.537741411
  O    0.634322841  -0.607120487  -1.240741411
  C   -0.761846771   0.729175670   1.490179411
  C   -0.038313582   0.073701009   2.180819472
  H   -1.403560355   1.311490456   0.877167857
  H    0.604012225  -0.507825308   2.793890185
