8
charge=0 charge_a=0 charge_b=0 selection_a=1-3 selection_b=4-8 scaling=1.25 benchmark_Eint=-0.203 benchmark_unit=kcal/mol group=HCNO contact=O-C
  H   -1.004584200  -0.486313027   1.938960870
  H   -0.430584200   0.925686973   1.990960870
  O   -0.518584200   0.158686973   1.419960870
  C    0.634137611  -0.194791714  -1.737125619
  H    1.005082119  -0.308777803  -2.753314747
  H    0.295012678   0.828468018  -1.587824579
  H   -0.195097176  -0.878482468  -1.574320152
  H    1.432301280  -0.418099148  -1.032531021
