14
charge=0 charge_a=0 charge_b=0 selection_a=1-5 selection_b=6-14 scaling=1.25 benchmark_Eint=-0.488 benchmark_unit=kcal/mol group=HCNO contact=O-C
  C   -1.700000000   0.000000000   0.000000000
  H   -2.787765140   0.000000000  -0.000000000
  H   -1.337649723   1.026186765   0.000000000
  H   -1.336769018  -0.512274047   0.887247178
  H   -1.337354622  -0.511979565  -0.888678938
  C    2.434419817  -0.833949018  -0.707157894
  C    3.735273025  -0.546432207  -0.463364917
  C    3.735375784   0.545741072   0.464061910
  C    2.434429513   0.832096261   0.708204296
  H    1.940141015   1.559744099   1.325522290
  H    4.590104631   1.043665856   0.886114641
  H    1.939771404  -1.560949687  -1.323870123
  H    4.589442411  -1.044224365  -0.886319557
  O    1.623767466  -0.000549565   0.000407027
