15
charge=0 charge_a=0 charge_b=0 selection_a=1-9 selection_b=10-15 scaling=1.00 benchmark_Eint=2.227 benchmark_unit=kcal/mol group=HCNO contact=O-C
  C    2.211197145  -0.883241953   0.978750253
  C    2.707197145  -2.031241953   1.498750253
  C    1.636197145  -2.982241953   1.459750253
  C    0.577197145  -2.334241953   0.918750253
  H   -0.431802855  -2.626241953   0.691750253
  H    1.659197145  -4.005241953   1.790750253
  H    2.628197145   0.090758047   0.802750253
  H    3.706197145  -2.187241953   1.864750253
  O    0.909197145  -1.049241953   0.618750253
  C   -0.760506326   0.877648096  -0.517559348
  C   -0.162444526   0.706178744  -1.687124799
  H   -1.626751344   0.296417303  -0.230309745
  H   -0.408315176   1.607348181   0.199409396
  H   -0.514635676  -0.023521341  -2.404093543
  H    0.702905484   1.287204063  -1.974770309
