18
charge=0 charge_a=0 charge_b=0 selection_a=1-6 selection_b=7-18 scaling=1.25 benchmark_Eint=0.045 benchmark_unit=kcal/mol group=HCNO contact=O-C
  C    0.278322841  -0.303120487  -2.583741411
  H   -0.093677159  -1.181120487  -3.119741411
  H    1.339322841  -1.257120487  -1.244741411
  H    1.114322841   0.125879513  -3.142741411
  H   -0.518677159   0.434879513  -2.537741411
  O    0.634322841  -0.607120487  -1.240741411
  C   -0.791409554   0.757470680   1.548004491
  C   -1.186882555  -0.509856222   1.965950215
  C   -0.344463586  -1.271057705   2.769104362
  C    0.892650900  -0.766028183   3.153871734
  C    1.287748686   0.500285289   2.736838242
  C    0.445231720   1.262481460   1.933652611
  H   -1.446848519   1.349721909   0.923465265
  H   -2.149044018  -0.901686430   1.665466593
  H   -0.651963568  -2.256235039   3.092718915
  H    1.548089866  -1.358279412   3.778410959
  H    2.250285364   0.893128927   3.036409631
  H    0.751453953   2.247475118   1.608212237
