15
charge=0 charge_a=0 charge_b=0 selection_a=1-5 selection_b=6-15 scaling=1.05 benchmark_Eint=0.605 benchmark_unit=kcal/mol group=HCNO contact=O-C
  C   -1.700000000   0.000000000   0.000000000
  H   -2.787765140   0.000000000  -0.000000000
  H   -1.337649723   1.026186765   0.000000000
  H   -1.336769018  -0.512274047   0.887247178
  H   -1.337354622  -0.511979565  -0.888678938
  C    2.340708365  -0.000792214   0.000586741
  O    1.132050539  -0.000383143   0.000283769
  C    3.136775678   1.254195076   0.295633743
  C    3.137740140  -1.253762448  -0.293984036
  H    3.758468078   1.512574587  -0.564805440
  H    3.809901290  -1.087336856  -1.138132667
  H    3.814051769   1.086697520   1.135425184
  H    2.466645190   2.077627625   0.521071022
  H    2.467193671  -2.079611823  -0.517085453
  H    3.763498824  -1.511315764   0.562567981
