15
charge=0 charge_a=0 charge_b=0 selection_a=1-5 selection_b=6-15 scaling=1.15 benchmark_Eint=-0.226 benchmark_unit=kcal/mol group=HCNO contact=O-C
  C   -1.700000000   0.000000000   0.000000000
  H   -2.787765140   0.000000000  -0.000000000
  H   -1.337649723   1.026186765   0.000000000
  H   -1.336769018  -0.512274047   0.887247178
  H   -1.337354622  -0.511979565  -0.888678938
  C    2.584503268  -0.000874727   0.000647853
  O    1.375845442  -0.000465656   0.000344881
  C    3.380570581   1.254112564   0.295694854
  C    3.381535043  -1.253844961  -0.293922924
  H    4.002262981   1.512492075  -0.564744329
  H    4.053696193  -1.087419369  -1.138071556
  H    4.057846673   1.086615007   1.135486296
  H    2.710440094   2.077545113   0.521132133
  H    2.710988574  -2.079694336  -0.517024342
  H    4.007293728  -1.511398277   0.562629093
