14
charge=0 charge_a=0 charge_b=0 selection_a=1-5 selection_b=6-14 scaling=1.15 benchmark_Eint=-0.260 benchmark_unit=kcal/mol group=HCNO contact=O-C
  C   -1.700000000   0.000000000   0.000000000
  H   -2.787765140   0.000000000  -0.000000000
  H   -1.337649723   1.026186765   0.000000000
  H   -1.336769018  -0.512274047   0.887247178
  H   -1.337354622  -0.511979565  -0.888678938
  C    2.190330120  -0.833866406  -0.707219079
  C    3.491183328  -0.546349594  -0.463426102
  C    3.491286087   0.545823684   0.464000725
  C    2.190339815   0.832178873   0.708143111
  H    1.696051318   1.559826711   1.325461105
  H    4.346014934   1.043748468   0.886053455
  H    1.695681706  -1.560867075  -1.323931309
  H    4.345352713  -1.044141753  -0.886380742
  O    1.379677769  -0.000466953   0.000345841
