21
charge=0 charge_a=0 charge_b=0 selection_a=1-9 selection_b=10-21 scaling=1.15 benchmark_Eint=-0.592 benchmark_unit=kcal/mol group=HCNO contact=O-C
  C    2.211197145  -0.883241953   0.978750253
  C    2.707197145  -2.031241953   1.498750253
  C    1.636197145  -2.982241953   1.459750253
  C    0.577197145  -2.334241953   0.918750253
  H   -0.431802855  -2.626241953   0.691750253
  H    1.659197145  -4.005241953   1.790750253
  H    2.628197145   0.090758047   0.802750253
  H    3.706197145  -2.187241953   1.864750253
  O    0.909197145  -1.049241953   0.618750253
  C   -0.904383185   1.043686493  -0.615474133
  C    0.207920446   1.811350597  -0.948141316
  C    0.834992853   1.630501650  -2.176240601
  C    0.350866937   0.682622546  -3.071059187
  C   -0.760678123  -0.084089765  -2.739112183
  C   -1.388718656   0.096651075  -1.510786966
  H   -1.392352632   1.184568674   0.339747846
  H    0.583788508   2.547778070  -0.251023121
  H    1.699935670   2.226680889  -2.433730868
  H    0.838836384   0.541740365  -4.026281166
  H   -1.137304756  -0.821469030  -3.435510199
  H   -2.253177552  -0.499320172  -1.251123554
