7
charge=0 charge_a=0 charge_b=0 selection_a=1-3 selection_b=4-7 scaling=1.15 benchmark_Eint=0.806 benchmark_unit=kcal/mol group=HCNO contact=O-C
  H   -1.004584200  -0.486313027   1.938960870
  H   -0.430584200   0.925686973   1.990960870
  O   -0.518584200   0.158686973   1.419960870
  C    0.635693477  -0.194522459  -1.740623533
  C    0.185986665  -1.301886798  -1.781108137
  H    1.034231670   0.788617537  -1.704943606
  H   -0.213360556  -2.284651892  -1.817240747
