12
charge=0 charge_a=0 charge_b=0 selection_a=1-6 selection_b=7-12 scaling=1.10 benchmark_Eint=0.958 benchmark_unit=kcal/mol group=HCNO contact=O-C
  C    0.278322841  -0.303120487  -2.583741411
  H   -0.093677159  -1.181120487  -3.119741411
  H    1.339322841  -1.257120487  -1.244741411
  H    1.114322841   0.125879513  -3.142741411
  H   -0.518677159   0.434879513  -2.537741411
  O    0.634322841  -0.607120487  -1.240741411
  C   -0.676249077   0.647248754   1.322749520
  C    0.125438043  -0.078659692   2.087810098
  H   -0.397106173   1.635488840   0.981893578
  H   -1.644834824   0.282601010   1.007442253
  H    1.094023790   0.285988052   2.403117366
  H   -0.153389453  -1.066051713   2.429091839
