16
charge=0 charge_a=0 charge_b=0 selection_a=1-6 selection_b=7-16 scaling=1.25 benchmark_Eint=0.348 benchmark_unit=kcal/mol group=HCNO contact=O-C
  C    0.000000000   0.000000000  -1.700000000
  C   -1.324750165   0.000000000  -1.700000000
  H    0.569437181   0.920034400  -1.700000000
  H    0.568432464  -0.920558601  -1.701181686
  H   -1.893182629   0.920558601  -1.698818314
  H   -1.894159417  -0.919202805  -1.700554680
  C   -0.000000000  -0.000000000   3.081247933
  O   -0.000000000   0.000000000   1.872590000
  C    0.833442500   0.983858694   3.876964383
  C   -0.831433738  -0.982275925   3.878629866
  H    1.553334725   0.446041224   4.498353595
  H   -0.195118632  -1.561713295   4.550523028
  H    0.199426720   1.559156150   4.554507613
  H    1.360835336   1.654993684   3.206611774
  H   -1.362723530  -1.652971435   3.208307042
  H   -1.547823664  -0.447091178   4.504690374
