15
charge=0 charge_a=0 charge_b=0 selection_a=1-5 selection_b=6-15 scaling=1.25 benchmark_Eint=-0.416 benchmark_unit=kcal/mol group=HCNO contact=O-C
  C   -1.700000000   0.000000000   0.000000000
  H   -2.787765140   0.000000000  -0.000000000
  H   -1.337649723   1.026186765   0.000000000
  H   -1.336769018  -0.512274047   0.887247178
  H   -1.337354622  -0.511979565  -0.888678938
  C    2.828298171  -0.000957239   0.000708965
  O    1.619640345  -0.000548168   0.000405992
  C    3.624365484   1.254030051   0.295755966
  C    3.625329947  -1.253927473  -0.293861813
  H    4.246057885   1.512409562  -0.564683217
  H    4.297491096  -1.087501881  -1.138010444
  H    4.301641576   1.086532495   1.135547407
  H    2.954234997   2.077462600   0.521193245
  H    2.954783477  -2.079776848  -0.516963230
  H    4.251088631  -1.511480789   0.562690205
