22
charge=0 charge_a=0 charge_b=0 selection_a=1-12 selection_b=13-22 scaling=1.05 benchmark_Eint=1.056 benchmark_unit=kcal/mol group=HCNO contact=O-C
  C    0.000000000   0.000000000  -1.700000000
  C   -1.391831527   0.000000000  -1.700000000
  C   -2.086751840   1.204674130  -1.700000000
  C   -1.390926964   2.408576334  -1.699526714
  C   -0.000398755   2.408810669  -1.700023148
  C    0.695408878   1.203930356  -1.700435643
  H    0.540576201  -0.937117009  -1.700286895
  H   -1.931767565  -0.937040559  -1.699743666
  H   -3.168350417   1.203978654  -1.698983485
  H   -1.931503165   3.345693343  -1.699239818
  H    0.540840601   3.345616893  -1.699783048
  H    1.777025417   1.202641463  -1.700421645
  C   -0.000000000   0.000000000   2.365119933
  O    0.000000000  -0.000000000   1.156462000
  C    1.268876707  -0.229251461   3.160836383
  C   -1.266501158   0.228304333   3.162501866
  H    1.163482319  -1.121655221   3.782225595
  H   -1.449752438  -0.612566375   3.834395028
  H    1.449694304   0.607556861   3.838379613
  H    2.113850429  -0.350018957   2.490483774
  H   -2.113044461   0.352665689   2.492179042
  H   -1.161633564   1.116358401   3.788562374
