7
charge=0 charge_a=0 charge_b=0 selection_a=1-3 selection_b=4-7 scaling=1.25 benchmark_Eint=0.543 benchmark_unit=kcal/mol group=HCNO contact=O-C
  H   -1.004584200  -0.486313027   1.938960870
  H   -0.430584200   0.925686973   1.990960870
  O   -0.518584200   0.158686973   1.419960870
  C    0.736103660  -0.225248015  -2.015561588
  C    0.286396848  -1.332612354  -2.056046192
  H    1.134641853   0.757891981  -1.979881662
  H   -0.112950373  -2.315377449  -2.092178802
