15
charge=0 charge_a=0 charge_b=0 selection_a=1-5 selection_b=6-15 scaling=1.10 benchmark_Eint=0.065 benchmark_unit=kcal/mol group=HCNO contact=O-C
  C   -1.700000000   0.000000000   0.000000000
  H   -2.787765140   0.000000000  -0.000000000
  H   -1.337649723   1.026186765   0.000000000
  H   -1.336769018  -0.512274047   0.887247178
  H   -1.337354622  -0.511979565  -0.888678938
  C    2.462753214  -0.000833521   0.000617334
  O    1.254095388  -0.000424449   0.000314362
  C    3.258820527   1.254153770   0.295664336
  C    3.259784989  -1.253803754  -0.293953443
  H    3.880512927   1.512533281  -0.564774848
  H    3.931946138  -1.087378163  -1.138102075
  H    3.936096618   1.086656214   1.135455777
  H    2.588690039   2.077586319   0.521101614
  H    2.589238520  -2.079653129  -0.517054861
  H    3.885543673  -1.511357070   0.562598574
