8
charge=0 charge_a=0 charge_b=0 selection_a=1-3 selection_b=4-8 scaling=1.05 benchmark_Eint=0.870 benchmark_unit=kcal/mol group=HCNO contact=O-C
  H   -1.004584200  -0.486313027   1.938960870
  H   -0.430584200   0.925686973   1.990960870
  O   -0.518584200   0.158686973   1.419960870
  C    0.464465710  -0.142872044  -1.272538652
  H    0.835410217  -0.256858134  -2.288727780
  H    0.125340777   0.880387688  -1.123237613
  H   -0.364769078  -0.826562798  -1.109733185
  H    1.262629379  -0.366179479  -0.567944054
