7
charge=0 charge_a=0 charge_b=0 selection_a=1-3 selection_b=4-7 scaling=1.05 benchmark_Eint=1.473 benchmark_unit=kcal/mol group=HCNO contact=O-C
  H   -1.004584200  -0.486313027   1.938960870
  H   -0.430584200   0.925686973   1.990960870
  O   -0.518584200   0.158686973   1.419960870
  C    0.535283294  -0.163796902  -1.465685478
  C    0.085576482  -1.271161242  -1.506170081
  H    0.933821487   0.819343093  -1.430005551
  H   -0.313770740  -2.253926336  -1.542302692
