7
charge=0 charge_a=0 charge_b=0 selection_a=1-3 selection_b=4-7 scaling=1.05 benchmark_Eint=1.883 benchmark_unit=kcal/mol group=HCNO contact=O-N
  H   -1.004584200  -0.486313027   1.938960870
  H   -0.430584200   0.925686973   1.990960870
  O   -0.518584200   0.158686973   1.419960870
  N    0.734394380  -0.224724974  -2.010881323
  H    0.317911315  -1.023940607  -2.473147728
  H    1.737438696  -0.357096622  -2.028932561
  H    0.529040620   0.589085910  -2.575518975
