14
charge=0 charge_a=0 charge_b=0 selection_a=1-4 selection_b=5-14 scaling=1.15 benchmark_Eint=1.560 benchmark_unit=kcal/mol group=HCNO contact=O-N
  N    0.802251487  -0.542489169  -1.273616133
  H    0.368251487  -0.249489169  -2.140616133
  H    0.843251487  -1.553489169  -1.285616133
  H    1.755251487  -0.203489169  -1.285616133
  C   -1.823093406   1.232791017   2.894255992
  O   -1.217063640   0.822988618   1.932152090
  C   -1.200712880   2.211781569   3.868929773
  C   -3.242102396   0.794938982   3.188645328
  H   -1.156557619   1.768126571   4.866345211
  H   -3.304049524   0.349368258   4.183489176
  H   -1.815165649   3.110585060   3.950219856
  H   -0.199865022   2.477603230   3.543998379
  H   -3.573589438   0.075838920   2.444034395
  H   -3.910013447   1.658350756   3.186660934
