10
charge=0 charge_a=0 charge_b=0 selection_a=1-3 selection_b=4-10 scaling=1.25 benchmark_Eint=-1.874 benchmark_unit=kcal/mol group=HCNO contact=O-N
  H   -1.004584200  -0.486313027   1.938960870
  H   -0.430584200   0.925686973   1.990960870
  O   -0.518584200   0.158686973   1.419960870
  C   -0.032643082  -1.549525338  -1.505055094
  H    0.194857392  -1.941066202  -2.493043094
  H   -1.104660652  -1.483751660  -1.362499302
  H    0.458727051  -2.141088629  -0.741531509
  N    0.531082079  -0.162511329  -1.454181927
  O    1.682348519  -0.043926235  -1.075515636
  O   -0.193123845   0.745745632  -1.820171095
