14
charge=0 charge_a=0 charge_b=0 selection_a=1-4 selection_b=5-14 scaling=1.10 benchmark_Eint=1.741 benchmark_unit=kcal/mol group=HCNO contact=O-N
  N    0.802251487  -0.542489169  -1.273616133
  H    0.368251487  -0.249489169  -2.140616133
  H    0.843251487  -1.553489169  -1.285616133
  H    1.755251487  -0.203489169  -1.285616133
  C   -1.735331104   1.173445414   2.754928755
  O   -1.129301339   0.763643016   1.792824853
  C   -1.112950578   2.152435966   3.729602536
  C   -3.154340095   0.735593380   3.049318091
  H   -1.068795317   1.708780968   4.727017974
  H   -3.216287223   0.290022655   4.044161939
  H   -1.727403348   3.051239458   3.810892619
  H   -0.112102721   2.418257628   3.404671142
  H   -3.485827137   0.016493317   2.304707158
  H   -3.822251146   1.599005153   3.047333697
