17
charge=0 charge_a=0 charge_b=0 selection_a=1-11 selection_b=12-17 scaling=1.10 benchmark_Eint=1.658 benchmark_unit=kcal/mol group=HCNO contact=O-N
  C   -0.175446694  -2.007467188   1.577808032
  C   -0.829446694  -2.993467188   2.306808032
  C   -2.215446694  -3.053467188   2.245808032
  C   -2.885446694  -2.126467188   1.458808032
  C   -2.138446694  -1.179467188   0.767808032
  N   -0.807446694  -1.112467188   0.818808032
  H    0.906553306  -1.933467188   1.603808032
  H   -0.263446694  -3.693467188   2.905808032
  H   -2.760446694  -3.806467188   2.798808032
  H   -3.963446694  -2.133467188   1.379808032
  H   -2.630446694  -0.441467188   0.144808032
  C    1.104795438   2.657760373  -0.566560169
  H    0.669084264   3.349313294  -1.293522569
  H    1.396636826   1.158559937  -1.789664685
  H    2.155576594   2.918726447  -0.414331168
  H    0.580924466   2.777301483   0.378552590
  O    0.943263265   1.299589731  -0.956535637
