12
charge=0 charge_a=0 charge_b=0 selection_a=1-3 selection_b=4-12 scaling=1.00 benchmark_Eint=2.186 benchmark_unit=kcal/mol group=HCNO contact=O-N
  C   -2.735331436  -0.059932766   0.222949889
  H   -3.797331436  -0.083932766   0.308949889
  N   -1.594331436  -0.034932766   0.129949889
  C    1.954440740   0.493753206  -1.159295269
  C    3.281961696   0.368100506  -0.922188734
  C    3.400864745  -0.220038958   0.378932719
  C    2.135701142  -0.404024825   0.825672306
  H    1.722281903  -0.806277678   1.732397829
  H    4.306705052  -0.468493543   0.902710017
  H    1.382486324   0.873681226  -1.985166837
  H    4.078958260   0.655340318  -1.584444553
  O    1.237296854   0.027109922  -0.100848911
