16
charge=0 charge_a=0 charge_b=0 selection_a=1-7 selection_b=8-16 scaling=1.15 benchmark_Eint=-3.003 benchmark_unit=kcal/mol group=HCNO contact=O-N
  C   -1.498059411  -0.000000000  -1.600000000
  H   -1.808519061   0.012758830  -2.641457161
  H   -1.835724257   0.896679702  -1.094215496
  H   -1.834939241  -0.909253068  -1.116129316
  N    0.000000000   0.000000000  -1.600000000
  O    0.555879823  -1.083121416  -1.626657474
  O    0.555981287   1.083622540  -1.600000000
  C   -0.248378134  -1.064585094   1.927652980
  C   -0.161838238  -0.697561584   3.228469873
  C    0.164014435   0.697710087   3.228435462
  C    0.248317050   1.064323278   1.927453588
  H    0.465543275   1.993449318   1.433073603
  H    0.313385984   1.333204457   4.083101505
  H   -0.465861237  -1.992839136   1.433096074
  H   -0.309846758  -1.333701951   4.082701640
  O    0.000000000   0.000000000   1.116896000
