16
charge=0 charge_a=0 charge_b=0 selection_a=1-7 selection_b=8-16 scaling=1.25 benchmark_Eint=0.635 benchmark_unit=kcal/mol group=HCNO contact=O-N
  N    0.907607368  -0.903143900  -0.959468583
  C    2.253607368  -0.330143900  -0.922468583
  H    0.540607368  -0.905143900  -1.901468583
  H    2.615607368  -0.329143900   0.105531417
  H    2.209607368   0.708856100  -1.249468583
  H    2.996607368  -0.847143900  -1.541468583
  H    0.914607368  -1.864143900  -0.645468583
  C   -1.694000098   2.408792942   0.966449097
  C   -2.415764529   2.876465047   2.012708581
  C   -2.351945928   1.864777165   3.025317990
  C   -1.596153620   0.865358164   2.511503191
  H   -1.273417612  -0.087519679   2.889311721
  H   -2.808458343   1.885876200   3.998852913
  H   -1.455353107   2.803084038  -0.003665920
  H   -2.929858786   3.819573821   2.063165840
  O   -1.185221772   1.179393040   1.252946036
