13
charge=0 charge_a=0 charge_b=0 selection_a=1-7 selection_b=8-13 scaling=1.15 benchmark_Eint=1.492 benchmark_unit=kcal/mol group=HCNO contact=O-N
  N    0.907607368  -0.903143900  -0.959468583
  C    2.253607368  -0.330143900  -0.922468583
  H    0.540607368  -0.905143900  -1.901468583
  H    2.615607368  -0.329143900   0.105531417
  H    2.209607368   0.708856100  -1.249468583
  H    2.996607368  -0.847143900  -1.541468583
  H    0.914607368  -1.864143900  -0.645468583
  C   -2.618482719   1.027013460   1.563111419
  H   -3.225108596   1.879050902   1.242797132
  H   -0.933279525   1.993026074   1.799051723
  H   -2.814172131   0.829817515   2.620578872
  H   -2.921022698   0.154483329   0.989413125
  O   -1.234423167   1.228352471   1.304958828
