17
charge=0 charge_a=0 charge_b=0 selection_a=1-11 selection_b=12-17 scaling=1.15 benchmark_Eint=1.445 benchmark_unit=kcal/mol group=HCNO contact=O-N
  C   -0.175446694  -2.007467188   1.577808032
  C   -0.829446694  -2.993467188   2.306808032
  C   -2.215446694  -3.053467188   2.245808032
  C   -2.885446694  -2.126467188   1.458808032
  C   -2.138446694  -1.179467188   0.767808032
  N   -0.807446694  -1.112467188   0.818808032
  H    0.906553306  -1.933467188   1.603808032
  H   -0.263446694  -3.693467188   2.905808032
  H   -2.760446694  -3.806467188   2.798808032
  H   -3.963446694  -2.133467188   1.379808032
  H   -2.630446694  -0.441467188   0.144808032
  C    1.184466203   2.767527510  -0.647351958
  H    0.748755030   3.459080431  -1.374314358
  H    1.476307592   1.268327075  -1.870456474
  H    2.235247360   3.028493585  -0.495122956
  H    0.660595231   2.887068620   0.297760802
  O    1.022934030   1.409356869  -1.037327426
