10
charge=0 charge_a=0 charge_b=0 selection_a=1-6 selection_b=7-10 scaling=1.25 benchmark_Eint=1.171 benchmark_unit=kcal/mol group=HCNO contact=O-N
  C    0.278322841  -0.303120487  -2.583741411
  H   -0.093677159  -1.181120487  -3.119741411
  H    1.339322841  -1.257120487  -1.244741411
  H    1.114322841   0.125879513  -3.142741411
  H   -0.518677159   0.434879513  -2.537741411
  O    0.634322841  -0.607120487  -1.240741411
  N   -1.145032853   1.095929168   2.239694972
  H   -0.590802959   0.916155690   3.068190429
  H   -2.068498081   0.718487122   2.409092360
  H   -1.241926823   2.099318604   2.155461973
