17
charge=0 charge_a=0 charge_b=0 selection_a=1-7 selection_b=8-17 scaling=1.15 benchmark_Eint=1.554 benchmark_unit=kcal/mol group=HCNO contact=O-N
  N    0.907607368  -0.903143900  -0.959468583
  C    2.253607368  -0.330143900  -0.922468583
  H    0.540607368  -0.905143900  -1.901468583
  H    2.615607368  -0.329143900   0.105531417
  H    2.209607368   0.708856100  -1.249468583
  H    2.996607368  -0.847143900  -1.541468583
  H    0.914607368  -1.864143900  -0.645468583
  C   -1.966940556   1.957267457   2.079332688
  O   -1.281323778   1.275022432   1.354539366
  C   -2.850538742   1.344760153   3.146974036
  C   -1.988258226   3.466929567   1.967834397
  H   -3.896141853   1.597571366   2.956140009
  H   -3.006021656   3.821041799   1.792200891
  H   -2.601021307   1.753474337   4.128147703
  H   -2.732593972   0.265898743   3.156198381
  H   -1.342516307   3.791015945   1.155787973
  H   -1.653652490   3.917793072   2.903970125
