6
charge=0 charge_a=0 charge_b=0 selection_a=1-3 selection_b=4-6 scaling=1.10 benchmark_Eint=1.640 benchmark_unit=kcal/mol group=HCNO contact=O-N
  H   -1.004584200  -0.486313027   1.938960870
  H   -0.430584200   0.925686973   1.990960870
  O   -0.518584200   0.158686973   1.419960870
  C    1.081095473  -0.330815648  -2.960200616
  H    1.444353578  -0.442931417  -3.955835892
  N    0.690432086  -0.211272495  -1.890506008
