6
charge=0 charge_a=0 charge_b=0 selection_a=1-3 selection_b=4-6 scaling=1.15 benchmark_Eint=1.434 benchmark_unit=kcal/mol group=HCNO contact=O-O
  H   -1.004584200  -0.486313027   1.938960870
  H   -0.430584200   0.925686973   1.990960870
  O   -0.518584200   0.158686973   1.419960870
  H    1.229961442   0.417347437  -2.556075638
  H    0.655960345  -0.994652100  -2.608076090
  O    0.743960893  -0.227652331  -2.037075864
