6
charge=0 charge_a=0 charge_b=0 selection_a=1-3 selection_b=4-6 scaling=1.10 benchmark_Eint=1.610 benchmark_unit=kcal/mol group=HCNO contact=O-O
  H   -1.004584200  -0.486313027   1.938960870
  H   -0.430584200   0.925686973   1.990960870
  O   -0.518584200   0.158686973   1.419960870
  H    1.175095233   0.434136519  -2.405843778
  H    0.601094136  -0.977863018  -2.457844230
  O    0.689094685  -0.210863250  -1.886844004
