12
charge=0 charge_a=0 charge_b=0 selection_a=1-3 selection_b=4-12 scaling=1.10 benchmark_Eint=1.061 benchmark_unit=kcal/mol group=HCNO contact=O-O
  H   -1.004584200  -0.486313027   1.938960870
  H   -0.430584200   0.925686973   1.990960870
  O   -0.518584200   0.158686973   1.419960870
  C    1.788526822  -0.394953339  -1.743943626
  C    1.883630019  -0.477521122  -3.092445737
  C    0.559180258  -0.272230404  -3.599053625
  C   -0.232186400  -0.081249990  -2.516773027
  H   -1.282902500   0.106845911  -2.392315767
  H    0.247177051  -0.268843003  -4.628257941
  H    2.501189210  -0.479250249  -0.944852048
  H    2.778707625  -0.660812893  -3.659484718
  O    0.501470921  -0.153450303  -1.373102161
