13
charge=0 charge_a=0 charge_b=0 selection_a=1-3 selection_b=4-13 scaling=1.10 benchmark_Eint=1.711 benchmark_unit=kcal/mol group=HCNO contact=O-O
  H   -1.004584200  -0.486313027   1.938960870
  H   -0.430584200   0.925686973   1.990960870
  O   -0.518584200   0.158686973   1.419960870
  C    1.088596236  -0.333110884  -2.980738823
  O    0.676233797  -0.206927813  -1.851628974
  C    0.198845123  -0.830187857  -4.101910728
  C    2.519751144  -0.003636711  -3.348445769
  H    0.602952034  -1.756960960  -4.515923069
  H    3.008408474  -0.873436154  -3.792008551
  H    0.173279845  -0.104901823  -4.917578912
  H   -0.806497501  -1.004532804  -3.732007973
  H    3.068779437   0.314441192  -2.465933230
  H    2.542189985   0.788704415  -4.098966281
