6
charge=0 charge_a=0 charge_b=0 selection_a=1-3 selection_b=4-6 scaling=1.25 benchmark_Eint=1.165 benchmark_unit=kcal/mol group=HCNO contact=O-O
  H   -1.004584200  -0.486313027   1.938960870
  H   -0.430584200   0.925686973   1.990960870
  O   -0.518584200   0.158686973   1.419960870
  H    1.339797575   0.383737536  -2.856823350
  H    0.765796478  -1.028262001  -2.908823803
  O    0.853797027  -0.261262232  -2.337823576
