16
charge=0 charge_a=0 charge_b=0 selection_a=1-6 selection_b=7-16 scaling=1.25 benchmark_Eint=1.309 benchmark_unit=kcal/mol group=HCNO contact=O-O
  C    0.278322841  -0.303120487  -2.583741411
  H   -0.093677159  -1.181120487  -3.119741411
  H    1.339322841  -1.257120487  -1.244741411
  H    1.114322841   0.125879513  -3.142741411
  H   -0.518677159   0.434879513  -2.537741411
  O    0.634322841  -0.607120487  -1.240741411
  C   -1.478967911   1.415543727   2.892875070
  O   -0.974573613   0.932779916   1.906275103
  C   -0.639666136   2.000281654   4.010651025
  C   -2.980808930   1.467186918   3.076648123
  H   -0.827608987   1.458816634   4.940763984
  H   -3.268635265   0.961065791   4.000272726
  H   -0.916396958   3.041093562   4.189923510
  H    0.414221901   1.937129606   3.759116090
  H   -3.477270988   0.997301829   2.231563851
  H   -3.313112634   2.503056362   3.166857558
