19
charge=0 charge_a=0 charge_b=0 selection_a=1-9 selection_b=10-19 scaling=1.05 benchmark_Eint=1.359 benchmark_unit=kcal/mol group=HCNO contact=O-O
  C    2.211197145  -0.883241953   0.978750253
  C    2.707197145  -2.031241953   1.498750253
  C    1.636197145  -2.982241953   1.459750253
  C    0.577197145  -2.334241953   0.918750253
  H   -0.431802855  -2.626241953   0.691750253
  H    1.659197145  -4.005241953   1.790750253
  H    2.628197145   0.090758047   0.802750253
  H    3.706197145  -2.187241953   1.864750253
  O    0.909197145  -1.049241953   0.618750253
  C   -1.508512348   1.740870449  -1.026611667
  O   -0.785546333   0.906545047  -0.534600218
  C   -2.260062380   1.481704392  -2.316485499
  C   -1.710025673   3.098350370  -0.387388197
  H   -1.950752314   2.200071525  -3.079304577
  H   -1.441067650   3.892047934  -1.087238722
  H   -3.332414608   1.622158815  -2.167015584
  H   -2.065637460   0.472827847  -2.666206912
  H   -1.104566798   3.181963792   0.511423434
  H   -2.762181473   3.242505874  -0.134848372
