20
charge=0 charge_a=0 charge_b=0 selection_a=1-10 selection_b=11-20 scaling=1.10 benchmark_Eint=1.828 benchmark_unit=kcal/mol group=HCNO contact=O-O
  C    1.618694325   0.013545559  -2.196638185
  O    0.901694325   0.007545559  -1.223638185
  C    1.080694325   0.319545559  -3.579638185
  C    3.099694325  -0.284454441  -2.097638185
  H    1.239694325  -0.536454441  -4.239638185
  H    3.362694325  -1.124454441  -2.743638185
  H    1.618694325   1.161545559  -4.019638185
  H    0.020694325   0.546545559  -3.526638185
  H    3.366694325  -0.515454441  -1.069638185
  H    3.679694325   0.573545559  -2.442638185
  C   -1.937172761  -0.016210650   2.628827192
  O   -1.220172761  -0.010210650   1.655827192
  C   -2.339489125   1.266006599   3.328705373
  C   -2.479369251  -1.303872651   3.211849951
  H   -1.984708716   1.254218970   4.361956995
  H   -2.188801239  -1.398862510   4.260006503
  H   -3.427101602   1.352315463   3.369422441
  H   -1.920913676   2.122388294   2.809722728
  H   -2.105363876  -2.155546347   2.649528072
  H   -3.570634599  -1.298333022   3.185425473
