12
charge=0 charge_a=0 charge_b=0 selection_a=1-6 selection_b=7-12 scaling=1.25 benchmark_Eint=1.193 benchmark_unit=kcal/mol group=HCNO contact=O-O
  C    0.278322841  -0.303120487  -2.583741411
  H   -0.093677159  -1.181120487  -3.119741411
  H    1.339322841  -1.257120487  -1.244741411
  H    1.114322841   0.125879513  -3.142741411
  H   -0.518677159   0.434879513  -2.537741411
  O    0.634322841  -0.607120487  -1.240741411
  C   -0.615492601   0.625387049   3.242827471
  H   -1.450730823   0.194149992   3.802269794
  H   -1.676128512   1.579781900   1.903820401
  H   -0.245791599   1.503957007   3.778414998
  H    0.183767864  -0.110161501   3.196783577
  O   -0.971275134   0.929622890   1.899823249
