20
charge=0 charge_a=0 charge_b=0 selection_a=1-10 selection_b=11-20 scaling=1.05 benchmark_Eint=1.984 benchmark_unit=kcal/mol group=HCNO contact=O-O
  C    1.618694325   0.013545559  -2.196638185
  O    0.901694325   0.007545559  -1.223638185
  C    1.080694325   0.319545559  -3.579638185
  C    3.099694325  -0.284454441  -2.097638185
  H    1.239694325  -0.536454441  -4.239638185
  H    3.362694325  -1.124454441  -2.743638185
  H    1.618694325   1.161545559  -4.019638185
  H    0.020694325   0.546545559  -3.526638185
  H    3.366694325  -0.515454441  -1.069638185
  H    3.679694325   0.573545559  -2.442638185
  C   -1.840691468  -0.015403276   2.497897906
  O   -1.123691468  -0.009403276   1.524897906
  C   -2.243007832   1.266813974   3.197776087
  C   -2.382887958  -1.303065277   3.080920665
  H   -1.888227423   1.255026345   4.231027709
  H   -2.092319947  -1.398055135   4.129077217
  H   -3.330620309   1.353122838   3.238493155
  H   -1.824432384   2.123195669   2.678793443
  H   -2.008882583  -2.154738972   2.518598786
  H   -3.474153306  -1.297525647   3.054496187
