9
charge=0 charge_a=0 charge_b=0 selection_a=1-3 selection_b=4-9 scaling=1.10 benchmark_Eint=1.652 benchmark_unit=kcal/mol group=HCNO contact=O-O
  H   -1.004584200  -0.486313027   1.938960870
  H   -0.430584200   0.925686973   1.990960870
  O   -0.518584200   0.158686973   1.419960870
  C    0.509681014  -1.361070803  -2.627606991
  H    1.472449362  -1.800375649  -2.904468619
  H    1.147131276   0.461499155  -2.310346985
  H   -0.059640999  -1.152151298  -3.537355905
  H   -0.042370709  -2.087392953  -2.036283027
  O    0.663372909  -0.202992376  -1.816413945
