19
charge=0 charge_a=0 charge_b=0 selection_a=1-9 selection_b=10-19 scaling=1.25 benchmark_Eint=0.556 benchmark_unit=kcal/mol group=HCNO contact=O-O
  C    2.211197145  -0.883241953   0.978750253
  C    2.707197145  -2.031241953   1.498750253
  C    1.636197145  -2.982241953   1.459750253
  C    0.577197145  -2.334241953   0.918750253
  H   -0.431802855  -2.626241953   0.691750253
  H    1.659197145  -4.005241953   1.790750253
  H    2.628197145   0.090758047   0.802750253
  H    3.706197145  -2.187241953   1.864750253
  O    0.909197145  -1.049241953   0.618750253
  C   -1.831459174   2.113561191  -1.246391757
  O   -1.108493159   1.279235789  -0.754380308
  C   -2.583009206   1.854395134  -2.536265589
  C   -2.032972499   3.471041111  -0.607168286
  H   -2.273699140   2.572762266  -3.299084667
  H   -1.764014476   4.264738676  -1.307018812
  H   -3.655361434   1.994849557  -2.386795674
  H   -2.388584286   0.845518588  -2.885987002
  H   -1.427513624   3.554654533   0.291643344
  H   -3.085128299   3.615196616  -0.354628461
