13
charge=0 charge_a=0 charge_b=0 selection_a=1-3 selection_b=4-13 scaling=1.00 benchmark_Eint=2.154 benchmark_unit=kcal/mol group=HCNO contact=O-O
  H   -1.004584200  -0.486313027   1.938960870
  H   -0.430584200   0.925686973   1.990960870
  O   -0.518584200   0.158686973   1.419960870
  C    0.980004704  -0.299881832  -2.683399017
  O    0.567642265  -0.173698761  -1.554289168
  C    0.090253591  -0.796958804  -3.804570922
  C    2.411159613   0.029592342  -3.051105963
  H    0.494360502  -1.723731908  -4.218583263
  H    2.899816943  -0.840207102  -3.494668745
  H    0.064688313  -0.071672771  -4.620239105
  H   -0.915089032  -0.971303751  -3.434668166
  H    2.960187906   0.347670244  -2.168593424
  H    2.433598453   0.821933467  -3.801626475
