10
charge=0 charge_a=0 charge_b=0 selection_a=1-2 selection_b=3-10 scaling=1.10 benchmark_Eint=-1.765 benchmark_unit=kcal/mol group=PS contact=P-H
  F    0.655496934  -0.274524357   1.568710612
  H    0.304496934  -0.127524357   0.728710612
  C   -2.181199832  -0.091465060  -1.627319624
  C    0.338829789   0.755740232  -2.398126281
  H   -2.322804385   0.160242150  -2.676346616
  H    1.391169112   1.001959947  -2.334448951
  H   -0.123959914   0.909482632  -3.365544476
  H   -2.860482980   0.508179147  -1.019659991
  H   -2.450356615  -1.137466557  -1.469438360
  P   -0.439763988   0.184174661  -1.052426638
