10
charge=0 charge_a=0 charge_b=0 selection_a=1-2 selection_b=3-10 scaling=1.15 benchmark_Eint=-3.305 benchmark_unit=kcal/mol group=PS contact=P-H
  F    0.655496934  -0.274524357   1.568710612
  H    0.304496934  -0.127524357   0.728710612
  C   -2.215044666  -0.077290727  -1.708315808
  C    0.304984955   0.769914564  -2.479122465
  H   -2.356649219   0.174416483  -2.757342801
  H    1.357324278   1.016134279  -2.415445136
  H   -0.157804748   0.923656964  -3.446540661
  H   -2.894327814   0.522353479  -1.100656175
  H   -2.484201449  -1.123292225  -1.550434544
  P   -0.473608822   0.198348994  -1.133422822
