8
charge=0 charge_a=0 charge_b=0 selection_a=1-4 selection_b=5-8 scaling=1.10 benchmark_Eint=0.054 benchmark_unit=kcal/mol group=PS contact=P-H
  H    2.629997318   0.717791816  -1.389164127
  H    2.351997318   1.939791816   0.252835873
  H    3.016997318   0.000791816   0.508835873
  P    1.939997318   0.644791816  -0.152164127
  C   -1.409864306  -0.468592898   0.110583025
  C   -2.541777425  -0.844041699   0.199700297
  H   -0.405374268  -0.134733181   0.031795622
  H   -3.546513549  -1.176992020   0.278823021
