8
charge=0 charge_a=0 charge_b=0 selection_a=1-4 selection_b=5-8 scaling=1.15 benchmark_Eint=0.409 benchmark_unit=kcal/mol group=PS contact=P-H
  H    2.629997318   0.717791816  -1.389164127
  H    2.351997318   1.939791816   0.252835873
  H    3.016997318   0.000791816   0.508835873
  P    1.939997318   0.644791816  -0.152164127
  B   -2.085418661  -0.693125125   0.163570283
  H   -0.961779695  -0.319664192   0.075437407
  H   -2.979839213   0.069432673  -0.009841022
  H   -2.315517002  -1.828188044   0.425673171
