10
charge=0 charge_a=0 charge_b=0 selection_a=1-2 selection_b=3-10 scaling=1.25 benchmark_Eint=-0.211 benchmark_unit=kcal/mol group=PS contact=P-H
  H    0.341976244  -0.556655337   0.461721869
  H    0.658976244  -1.072655337   0.889721869
  C   -2.118033797   2.958665760  -0.804214428
  C   -0.830443158   1.788530956  -2.957199306
  H   -2.443171642   3.572919687  -1.641378387
  H   -0.205081938   1.105235165  -3.517669829
  H   -1.319130619   2.563280657  -3.535694307
  H   -1.615361719   3.589940907  -0.070006372
  H   -2.993039906   2.530576483  -0.311675211
  P   -0.977066739   1.590430401  -1.319194210
