8
charge=0 charge_a=0 charge_b=0 selection_a=1-4 selection_b=5-8 scaling=1.05 benchmark_Eint=1.475 benchmark_unit=kcal/mol group=PS contact=P-H
  H    2.629997318   0.717791816  -1.389164127
  H    2.351997318   1.939791816   0.252835873
  H    3.016997318   0.000791816   0.508835873
  P    1.939997318   0.644791816  -0.152164127
  B   -1.832972962  -0.609220411   0.143769648
  H   -0.709333995  -0.235759478   0.055636772
  H   -2.727393513   0.153337388  -0.029641657
  H   -2.063071302  -1.744283330   0.405872536
