9
charge=0 charge_a=0 charge_b=0 selection_a=1-4 selection_b=5-9 scaling=1.25 benchmark_Eint=-0.312 benchmark_unit=kcal/mol group=PS contact=P-H
  H    2.629997318   0.717791816  -1.389164127
  H    2.351997318   1.939791816   0.252835873
  H    3.016997318   0.000791816   0.508835873
  P    1.939997318   0.644791816  -0.152164127
  C   -2.016527978  -0.670228111   0.158166827
  H   -0.987132147  -0.328090520   0.077425932
  H   -2.691064054   0.159570099  -0.043805979
  H   -2.193045866  -1.464153015  -0.563008382
  H   -2.195934008  -1.046269735   1.163050488
