10
charge=0 charge_a=0 charge_b=0 selection_a=1-2 selection_b=3-10 scaling=1.00 benchmark_Eint=4.006 benchmark_unit=kcal/mol group=PS contact=P-H
  F    0.655496934  -0.274524357   1.568710612
  H    0.304496934  -0.127524357   0.728710612
  C   -2.113618640  -0.119768294  -1.465586858
  C    0.406410981   0.727436998  -2.236393515
  H   -2.255223194   0.131938916  -2.514613850
  H    1.458750303   0.973656713  -2.172716185
  H   -0.056378722   0.881179398  -3.203811711
  H   -2.792901789   0.479875913  -0.857927225
  H   -2.382775424  -1.165769791  -1.307705594
  P   -0.372182796   0.155871427  -0.890693872
