13
charge=0 charge_a=0 charge_b=0 selection_a=1-5 selection_b=6-13 scaling=1.00 benchmark_Eint=2.339 benchmark_unit=kcal/mol group=PS contact=P-C
  C   -1.700000000   0.000000000   0.000000000
  H   -2.787765140   0.000000000  -0.000000000
  H   -1.337649723   1.026186765   0.000000000
  H   -1.336769018  -0.512274047   0.887247178
  H   -1.337354622  -0.511979565  -0.888678938
  C    2.657563819   1.173486089  -0.867937063
  C    2.534390379  -1.049835202   0.776483729
  H    3.707010514   0.939092149  -0.701843369
  H    2.114673240  -1.852026534   1.370136481
  H    3.616279207  -1.004669319   0.742051081
  H    2.458448038   2.189981864  -0.525390358
  H    2.449720986   1.151001966  -1.939285196
  P    1.514396572  -0.000512548   0.000379611
