13
charge=0 charge_a=0 charge_b=0 selection_a=1-5 selection_b=6-13 scaling=1.15 benchmark_Eint=-0.020 benchmark_unit=kcal/mol group=PS contact=P-C
  C   -1.700000000   0.000000000   0.000000000
  H   -2.787765140   0.000000000  -0.000000000
  H   -1.337649723   1.026186765   0.000000000
  H   -1.336769018  -0.512274047   0.887247178
  H   -1.337354622  -0.511979565  -0.888678938
  C    3.098914806   1.173336713  -0.867826430
  C    2.975741366  -1.049984578   0.776594362
  H    4.148361501   0.938942774  -0.701732737
  H    2.556024227  -1.852175910   1.370247113
  H    4.057630194  -1.004818695   0.742161713
  H    2.899799025   2.189832488  -0.525279726
  H    2.891071973   1.150852591  -1.939174563
  P    1.955747559  -0.000661924   0.000490244
