8
charge=0 charge_a=0 charge_b=0 selection_a=1-4 selection_b=5-8 scaling=1.15 benchmark_Eint=0.370 benchmark_unit=kcal/mol group=PS contact=P-C
  H    2.629997318   0.717791816  -1.389164127
  H    2.351997318   1.939791816   0.252835873
  H    3.016997318   0.000791816   0.508835873
  P    1.939997318   0.644791816  -0.152164127
  C   -1.704950082  -0.566669783   0.133728144
  C   -2.016762363   0.484273495   0.611663629
  H   -1.428326267  -1.499215881  -0.291133056
  H   -2.293670682   1.417118085   1.035613807
