25
charge=0 charge_a=0 charge_b=0 selection_a=1-13 selection_b=14-25 scaling=1.25 benchmark_Eint=-0.514 benchmark_unit=kcal/mol group=PS contact=P-C
  C    2.680204605   0.705092983  -1.879184675
  C    2.396204605   2.294092983   0.447815325
  C    3.257204605  -0.394907017   0.664815325
  H    2.095204605   1.395092983  -2.487184675
  H    2.158204605   2.361092983   1.508815325
  H    3.229204605  -1.417907017   0.289815325
  H    2.630204605  -0.274907017  -2.353184675
  H    3.720204605   1.039092983  -1.869184675
  H    1.800204605   3.043092983  -0.073184675
  H    3.454204605   2.525092983   0.307815325
  H    3.055204605  -0.428907017   1.735815325
  H    4.259204605   0.010092983   0.508815325
  P    1.949204605   0.609092983  -0.179184675
  C   -1.802182282  -0.563151030   0.165669343
  C   -1.372968299  -1.863642889   0.414046640
  C   -1.124155387  -2.276078858   1.718708553
  C   -1.303793550  -1.389049179   2.774389129
  C   -1.733070926  -0.089876529   2.526517467
  C   -1.982555591   0.323225426   1.221531193
  H   -1.996005952  -0.242404688  -0.849202653
  H   -1.233064138  -2.552323172  -0.407976653
  H   -0.789664649  -3.286531695   1.910953216
  H   -1.109969879  -1.709795521   3.789261125
  H   -1.872911694   0.600122962   3.348035124
  H   -2.316128874   1.333611036   1.027248452
