19
charge=0 charge_a=0 charge_b=0 selection_a=1-13 selection_b=14-19 scaling=1.05 benchmark_Eint=1.628 benchmark_unit=kcal/mol group=PS contact=P-C
  C    2.680204605   0.705092983  -1.879184675
  C    2.396204605   2.294092983   0.447815325
  C    3.257204605  -0.394907017   0.664815325
  H    2.095204605   1.395092983  -2.487184675
  H    2.158204605   2.361092983   1.508815325
  H    3.229204605  -1.417907017   0.289815325
  H    2.630204605  -0.274907017  -2.353184675
  H    3.720204605   1.039092983  -1.869184675
  H    1.800204605   3.043092983  -0.073184675
  H    3.454204605   2.525092983   0.307815325
  H    3.055204605  -0.428907017   1.735815325
  H    4.259204605   0.010092983   0.508815325
  P    1.949204605   0.609092983  -0.179184675
  C   -1.475215095  -0.460979397   0.135612206
  C   -1.237924444  -0.854864014   1.377993410
  H   -1.809665539   0.543139830  -0.089353301
  H   -1.345572206  -1.127605462  -0.706615442
  H   -1.367567332  -0.188237949   2.220221058
  H   -0.904216517  -1.858385180   1.603260565
