8
charge=0 charge_a=0 charge_b=0 selection_a=1-4 selection_b=5-8 scaling=1.05 benchmark_Eint=1.737 benchmark_unit=kcal/mol group=PS contact=P-N
  H    2.629997318   0.717791816  -1.389164127
  H    2.351997318   1.939791816   0.252835873
  H    3.016997318   0.000791816   0.508835873
  P    1.939997318   0.644791816  -0.152164127
  N   -1.545231522  -0.513584545   0.121200583
  H   -2.180758545   0.254401816   0.300634006
  H   -1.658950406  -1.179122996   0.874906484
  H   -1.854782620  -0.966896865  -0.728481745
