12
charge=0 charge_a=0 charge_b=0 selection_a=1-4 selection_b=5-12 scaling=1.10 benchmark_Eint=1.383 benchmark_unit=kcal/mol group=PS contact=P-N
  N    0.802251487  -0.542489169  -1.273616133
  H    0.368251487  -0.249489169  -2.140616133
  H    0.843251487  -1.553489169  -1.285616133
  H    1.755251487  -0.203489169  -1.285616133
  C   -0.565542147   0.819868140   3.557893703
  C   -2.655183728   1.404726587   1.839235023
  H   -1.317058583   1.235332741   4.226083954
  H   -3.221152201   1.488834134   0.920157982
  H   -3.153430086   1.757822151   2.734099866
  H    0.345078096   1.416754626   3.626787068
  H   -0.311413371  -0.189553482   3.886493086
  P   -1.128725223   0.763253441   1.791910238
