11
charge=0 charge_a=0 charge_b=0 selection_a=1-4 selection_b=5-11 scaling=1.25 benchmark_Eint=0.605 benchmark_unit=kcal/mol group=PS contact=P-N
  H    2.629997318   0.717791816  -1.389164127
  H    2.351997318   1.939791816   0.252835873
  H    3.016997318   0.000791816   0.508835873
  P    1.939997318   0.644791816  -0.152164127
  N   -2.102384557  -0.698764036   0.164901007
  C   -2.863690032   0.402555074   0.755599061
  H   -2.159728570  -1.528153038   0.740124918
  H   -2.771394648   1.284034897   0.121324764
  H   -2.433156068   0.656351929   1.724419819
  H   -3.931863042   0.203273803   0.903221538
  H   -2.469846729  -0.946235153  -0.743886976
