8
charge=0 charge_a=0 charge_b=0 selection_a=1-4 selection_b=5-8 scaling=1.00 benchmark_Eint=2.451 benchmark_unit=kcal/mol group=PS contact=P-N
  H    2.629997318   0.717791816  -1.389164127
  H    2.351997318   1.939791816   0.252835873
  H    3.016997318   0.000791816   0.508835873
  P    1.939997318   0.644791816  -0.152164127
  N   -1.379432727  -0.458478434   0.108196117
  H   -2.014959750   0.309507926   0.287629540
  H   -1.493151611  -1.124016886   0.861902018
  H   -1.688983825  -0.911790754  -0.741486211
