19
charge=0 charge_a=0 charge_b=0 selection_a=1-11 selection_b=12-19 scaling=1.00 benchmark_Eint=2.807 benchmark_unit=kcal/mol group=PS contact=P-N
  C   -0.175446694  -2.007467188   1.577808032
  C   -0.829446694  -2.993467188   2.306808032
  C   -2.215446694  -3.053467188   2.245808032
  C   -2.885446694  -2.126467188   1.458808032
  C   -2.138446694  -1.179467188   0.767808032
  N   -0.807446694  -1.112467188   0.818808032
  H    0.906553306  -1.933467188   1.603808032
  H   -0.263446694  -3.693467188   2.905808032
  H   -2.760446694  -3.806467188   2.798808032
  H   -3.963446694  -2.133467188   1.379808032
  H   -2.630446694  -0.441467188   0.144808032
  C    1.102808081   2.950738796  -0.418003477
  C    1.649648448   0.994330490  -2.298397360
  H    1.690689760   3.487826143  -1.159487336
  H    1.657870534   0.027211759  -2.784926657
  H    2.182332549   1.785483528  -2.812239281
  H    1.601747942   3.014414874   0.550114993
  H    0.131391453   3.436550772  -0.309249353
  P    0.847579318   1.167760284  -0.859505350
