8
charge=0 charge_a=0 charge_b=0 selection_a=1-4 selection_b=5-8 scaling=1.25 benchmark_Eint=0.670 benchmark_unit=kcal/mol group=PS contact=P-N
  H    2.629997318   0.717791816  -1.389164127
  H    2.351997318   1.939791816   0.252835873
  H    3.016997318   0.000791816   0.508835873
  P    1.939997318   0.644791816  -0.152164127
  N   -2.209117531  -0.734238595   0.173272632
  H   -2.844644554   0.033747766   0.352706055
  H   -2.322836415  -1.399777046   0.926978533
  H   -2.518668629  -1.187550915  -0.676409696
