11
charge=0 charge_a=0 charge_b=0 selection_a=1-4 selection_b=5-11 scaling=1.25 benchmark_Eint=-1.701 benchmark_unit=kcal/mol group=PS contact=P-N
  H    2.629997318   0.717791816  -1.389164127
  H    2.351997318   1.939791816   0.252835873
  H    3.016997318   0.000791816   0.508835873
  P    1.939997318   0.644791816  -0.152164127
  C   -1.940063734   0.801696795   0.719818746
  H   -3.009038062   0.751565772   0.909454628
  H   -1.720617682   1.579099983  -0.002232300
  H   -1.396477898   0.923927612   1.649299282
  N   -1.549376492  -0.514962197   0.121525694
  O   -1.222912392  -1.400311757   0.891228461
  O   -1.611194832  -0.615043132  -1.090709968
