20
charge=0 charge_a=0 charge_b=0 selection_a=1-13 selection_b=14-20 scaling=1.25 benchmark_Eint=0.998 benchmark_unit=kcal/mol group=PS contact=P-N
  C    2.680204605   0.705092983  -1.879184675
  C    2.396204605   2.294092983   0.447815325
  C    3.257204605  -0.394907017   0.664815325
  H    2.095204605   1.395092983  -2.487184675
  H    2.158204605   2.361092983   1.508815325
  H    3.229204605  -1.417907017   0.289815325
  H    2.630204605  -0.274907017  -2.353184675
  H    3.720204605   1.039092983  -1.869184675
  H    1.800204605   3.043092983  -0.073184675
  H    3.454204605   2.525092983   0.307815325
  H    3.055204605  -0.428907017   1.735815325
  H    4.259204605   0.010092983   0.508815325
  P    1.949204605   0.609092983  -0.179184675
  N   -2.458721934  -0.768308403   0.226023112
  C   -2.605018480  -1.308919908   1.577966351
  H   -2.680499798  -1.467569827  -0.469609722
  H   -2.346369516  -0.537691399   2.303318886
  H   -1.899500971  -2.128737241   1.714093436
  H   -3.606477923  -1.681666605   1.824213960
  H   -3.091158941   0.005979236   0.075463874
