11
charge=0 charge_a=0 charge_b=0 selection_a=1-4 selection_b=5-11 scaling=1.15 benchmark_Eint=0.944 benchmark_unit=kcal/mol group=PS contact=P-N
  H    2.629997318   0.717791816  -1.389164127
  H    2.351997318   1.939791816   0.252835873
  H    3.016997318   0.000791816   0.508835873
  P    1.939997318   0.644791816  -0.152164127
  N   -1.779076906  -0.591307121   0.139542298
  C   -2.540382382   0.510011989   0.730240353
  H   -1.836420920  -1.420696123   0.714766210
  H   -2.448086997   1.391491812   0.095966056
  H   -2.109848417   0.763808844   1.699061111
  H   -3.608555392   0.310730718   0.877862830
  H   -2.146539078  -0.838778238  -0.769245685
