12
charge=0 charge_a=0 charge_b=0 selection_a=1-4 selection_b=5-12 scaling=1.00 benchmark_Eint=2.539 benchmark_unit=kcal/mol group=PS contact=P-N
  N    0.802251487  -0.542489169  -1.273616133
  H    0.368251487  -0.249489169  -2.140616133
  H    0.843251487  -1.553489169  -1.285616133
  H    1.755251487  -0.203489169  -1.285616133
  C   -0.390032085   0.701186767   3.279262314
  C   -2.479673666   1.286045214   1.560603633
  H   -1.141548521   1.116651368   3.947452565
  H   -3.045642139   1.370152761   0.641526592
  H   -2.977920024   1.639140778   2.455468477
  H    0.520588158   1.298073253   3.348155678
  H   -0.135903309  -0.308234855   3.607861696
  P   -0.953215161   0.644572068   1.513278849
