14
charge=0 charge_a=0 charge_b=0 selection_a=1-4 selection_b=5-14 scaling=1.00 benchmark_Eint=2.250 benchmark_unit=kcal/mol group=PS contact=P-O
  H    2.629997318   0.717791816  -1.389164127
  H    2.351997318   1.939791816   0.252835873
  H    3.016997318   0.000791816   0.508835873
  P    1.939997318   0.644791816  -0.152164127
  C   -2.219394722  -0.737654398   0.174078725
  O   -1.075593186  -0.357492084   0.084364394
  C   -3.377514680   0.097204956  -0.333402328
  C   -2.569713682  -2.071262250   0.799164897
  H   -4.050749880   0.341860454   0.491531035
  H   -3.261001189  -1.930870962   1.632529684
  H   -3.963063039  -0.467090237  -1.061902195
  H   -3.008740610   1.012115025  -0.786042639
  H   -1.668820042  -2.567754260   1.150334848
  H   -3.077401598  -2.706146042   0.070629002
