17
charge=0 charge_a=0 charge_b=0 selection_a=1-9 selection_b=10-17 scaling=1.25 benchmark_Eint=0.056 benchmark_unit=kcal/mol group=PS contact=P-O
  C    2.211197145  -0.883241953   0.978750253
  C    2.707197145  -2.031241953   1.498750253
  C    1.636197145  -2.982241953   1.459750253
  C    0.577197145  -2.334241953   0.918750253
  H   -0.431802855  -2.626241953   0.691750253
  H    1.659197145  -4.005241953   1.790750253
  H    2.628197145   0.090758047   0.802750253
  H    3.706197145  -2.187241953   1.864750253
  O    0.909197145  -1.049241953   0.618750253
  C   -1.399452180   2.185097600  -2.690487889
  C   -2.573349327   2.460516932  -0.198789937
  H   -2.152686396   2.951059328  -2.863134482
  H   -2.772765444   2.300697003   0.853249892
  H   -3.194115989   3.200461560  -0.689544151
  H   -1.586506156   1.341451567  -3.356461748
  H   -0.416410974   2.583537142  -2.948105665
  P   -1.374631314   1.586367547  -0.935499499
