23
charge=0 charge_a=0 charge_b=0 selection_a=1-13 selection_b=14-23 scaling=1.00 benchmark_Eint=2.358 benchmark_unit=kcal/mol group=PS contact=P-O
  C    2.680204605   0.705092983  -1.879184675
  C    2.396204605   2.294092983   0.447815325
  C    3.257204605  -0.394907017   0.664815325
  H    2.095204605   1.395092983  -2.487184675
  H    2.158204605   2.361092983   1.508815325
  H    3.229204605  -1.417907017   0.289815325
  H    2.630204605  -0.274907017  -2.353184675
  H    3.720204605   1.039092983  -1.869184675
  H    1.800204605   3.043092983  -0.073184675
  H    3.454204605   2.525092983   0.307815325
  H    3.055204605  -0.428907017   1.735815325
  H    4.259204605   0.010092983   0.508815325
  P    1.949204605   0.609092983  -0.179184675
  C   -2.528641266  -0.790156994   0.232450591
  O   -1.379411213  -0.431042328   0.126805236
  C   -3.384686156  -0.381223559   1.413860593
  C   -3.187404940  -1.671589622  -0.807295986
  H   -3.710727734  -1.267685480   1.962949978
  H   -3.565910211  -2.586008914  -0.346149459
  H   -4.287809633   0.127813457   1.071432060
  H   -2.822498986   0.270392491   2.075132178
  H   -2.475644341  -1.923310143  -1.589259942
  H   -4.046185532  -1.159197302  -1.244947680
