19
charge=0 charge_a=0 charge_b=0 selection_a=1-13 selection_b=14-19 scaling=1.15 benchmark_Eint=1.343 benchmark_unit=kcal/mol group=PS contact=P-O
  C    2.680204605   0.705092983  -1.879184675
  C    2.396204605   2.294092983   0.447815325
  C    3.257204605  -0.394907017   0.664815325
  H    2.095204605   1.395092983  -2.487184675
  H    2.158204605   2.361092983   1.508815325
  H    3.229204605  -1.417907017   0.289815325
  H    2.630204605  -0.274907017  -2.353184675
  H    3.720204605   1.039092983  -1.869184675
  H    1.800204605   3.043092983  -0.073184675
  H    3.454204605   2.525092983   0.307815325
  H    3.055204605  -0.428907017   1.735815325
  H    4.259204605   0.010092983   0.508815325
  P    1.949204605   0.609092983  -0.179184675
  C   -2.377279275  -1.151764024   1.323263131
  H   -2.744479542  -2.163883529   1.130022161
  H   -2.468464158  -0.495656057  -0.517922805
  H   -3.195404596  -0.548425534   1.725844335
  H   -1.591446147  -1.208269955   2.072424245
  O   -1.798967521  -0.562146473   0.165373820
