10
charge=0 charge_a=0 charge_b=0 selection_a=1-4 selection_b=5-10 scaling=1.15 benchmark_Eint=0.863 benchmark_unit=kcal/mol group=PS contact=P-O
  H    2.629997318   0.717791816  -1.389164127
  H    2.351997318   1.939791816   0.252835873
  H    3.016997318   0.000791816   0.508835873
  P    1.939997318   0.644791816  -0.152164127
  C   -2.603349637   0.252503957   0.642865319
  H   -3.046443423  -0.218586164   1.525081842
  H   -1.843175454  -1.366248657  -0.151195879
  H   -3.386391439   0.417510345  -0.102142352
  H   -2.198763789   1.218264283   0.935416657
  O   -1.519519460  -0.505038694   0.119183851
