14
charge=0 charge_a=0 charge_b=0 selection_a=1-6 selection_b=7-14 scaling=1.15 benchmark_Eint=0.986 benchmark_unit=kcal/mol group=PS contact=P-O
  C    0.278322841  -0.303120487  -2.583741411
  H   -0.093677159  -1.181120487  -3.119741411
  H    1.339322841  -1.257120487  -1.244741411
  H    1.114322841   0.125879513  -3.142741411
  H   -0.518677159   0.434879513  -2.537741411
  O    0.634322841  -0.607120487  -1.240741411
  C   -0.483697020   0.510345121   3.520378782
  C   -2.107922912   1.975196266   1.823749662
  H   -1.099372175   1.082225024   4.211583151
  H   -2.537381337   2.354224871   0.905055056
  H   -2.525288589   2.375377885   2.739920805
  H    0.567160079   0.742043043   3.700001809
  H   -0.614515594  -0.554840028   3.719773115
  P   -0.891703924   0.853464018   1.744181217
