16
charge=0 charge_a=0 charge_b=0 selection_a=1-3 selection_b=4-16 scaling=1.15 benchmark_Eint=1.368 benchmark_unit=kcal/mol group=PS contact=P-O
  H   -1.004584200  -0.486313027   1.938960870
  H   -0.430584200   0.925686973   1.990960870
  O   -0.518584200   0.158686973   1.419960870
  C    1.173640713  -1.978977065  -2.988433432
  C   -0.178899609   0.391137353  -3.745862190
  C    2.483151534   0.523092568  -2.789200008
  H    0.249880576  -2.555627423  -2.942275288
  H   -0.340921137   1.459092779  -3.604178629
  H    3.263633806   0.124993917  -2.140892298
  H    1.903286760  -2.474450920  -2.348356637
  H    1.543259765  -1.987413784  -4.016327677
  H   -1.153136898  -0.096901015  -3.727470435
  H    0.278171168   0.229915766  -4.724340041
  H    2.423411621   1.597760092  -2.614494952
  H    2.767724970   0.351382466  -3.829343556
  P    0.862008057  -0.263774811  -2.360306602
