7
charge=0 charge_a=0 charge_b=0 selection_a=1-3 selection_b=4-7 scaling=1.10 benchmark_Eint=1.211 benchmark_unit=kcal/mol group=PS contact=P-O
  H   -1.004584200  -0.486313027   1.938960870
  H   -0.430584200   0.925686973   1.990960870
  O   -0.518584200   0.158686973   1.419960870
  H   -0.157400042  -0.484399948  -2.999366340
  H    1.390170815   0.817550185  -2.579030411
  H    1.631542204  -1.209877502  -2.264771243
  P    0.692950973  -0.212043275  -1.897403095
