13
charge=0 charge_a=0 charge_b=0 selection_a=1-4 selection_b=5-13 scaling=1.00 benchmark_Eint=2.381 benchmark_unit=kcal/mol group=PS contact=P-O
  H    2.629997318   0.717791816  -1.389164127
  H    2.351997318   1.939791816   0.252835873
  H    3.016997318   0.000791816   0.508835873
  P    1.939997318   0.644791816  -0.152164127
  C   -1.505682781  -1.189336036   1.012860018
  C   -2.829297331  -1.390881816   0.808546974
  C   -3.180470934  -0.604404920  -0.336483241
  C   -2.041236976   0.010286206  -0.734436517
  H   -1.807319167   0.689709603  -1.533523687
  H   -4.149486906  -0.514177315  -0.794179674
  H   -0.803829267  -1.557619833   1.737642531
  H   -3.477712257  -2.017646901   1.394223174
  O   -1.006335282  -0.334473016   0.078932135
