16
charge=0 charge_a=0 charge_b=0 selection_a=1-3 selection_b=4-16 scaling=1.00 benchmark_Eint=2.486 benchmark_unit=kcal/mol group=PS contact=P-O
  H   -1.004584200  -0.486313027   1.938960870
  H   -0.430584200   0.925686973   1.990960870
  O   -0.518584200   0.158686973   1.419960870
  C    0.993621714  -1.923891179  -2.495514568
  C   -0.358918608   0.446223239  -3.252943326
  C    2.303132535   0.578178454  -2.296281144
  H    0.069861577  -2.500541537  -2.449356424
  H   -0.520940136   1.514178665  -3.111259765
  H    3.083614807   0.180079803  -1.647973434
  H    1.723267761  -2.419365034  -1.855437773
  H    1.363240766  -1.932327898  -3.523408813
  H   -1.333155897  -0.041815129  -3.234551571
  H    0.098152169   0.285001652  -4.231421177
  H    2.243392622   1.652845978  -2.121576088
  H    2.587705971   0.406468352  -3.336424692
  P    0.681989058  -0.208688925  -1.867387738
