14
charge=0 charge_a=0 charge_b=0 selection_a=1-4 selection_b=5-14 scaling=1.25 benchmark_Eint=0.598 benchmark_unit=kcal/mol group=PS contact=P-O
  H    2.629997318   0.717791816  -1.389164127
  H    2.351997318   1.939791816   0.252835873
  H    3.016997318   0.000791816   0.508835873
  P    1.939997318   0.644791816  -0.152164127
  C   -2.973123426  -0.988169229   0.233197606
  O   -1.829321890  -0.608006914   0.143483275
  C   -4.131243385  -0.153309875  -0.274283448
  C   -3.323442386  -2.321777081   0.858283778
  H   -4.804478584   0.091345623   0.550649916
  H   -4.014729893  -2.181385792   1.691648565
  H   -4.716791743  -0.717605068  -1.002783314
  H   -3.762469314   0.761600195  -0.726923758
  H   -2.422548746  -2.818269091   1.209453729
  H   -3.831130303  -2.956660873   0.129747883
