7
charge=0 charge_a=0 charge_b=0 selection_a=1-3 selection_b=4-7 scaling=1.15 benchmark_Eint=0.928 benchmark_unit=kcal/mol group=PS contact=P-O
  H   -1.004584200  -0.486313027   1.938960870
  H   -0.430584200   0.925686973   1.990960870
  O   -0.518584200   0.158686973   1.419960870
  H   -0.102346871  -0.501246241  -3.150110134
  H    1.445223986   0.800703893  -2.729774204
  H    1.686595376  -1.226723795  -2.415515036
  P    0.748004144  -0.228889568  -2.048146888
