7
charge=0 charge_a=0 charge_b=0 selection_a=1-3 selection_b=4-7 scaling=1.00 benchmark_Eint=2.404 benchmark_unit=kcal/mol group=PS contact=P-O
  H   -1.004584200  -0.486313027   1.938960870
  H   -0.430584200   0.925686973   1.990960870
  O   -0.518584200   0.158686973   1.419960870
  H   -0.267506385  -0.450707363  -2.697878754
  H    1.280064471   0.851242770  -2.277542824
  H    1.521435861  -1.176184917  -1.963283656
  P    0.582844629  -0.178350690  -1.595915508
