22
charge=0 charge_a=0 charge_b=0 selection_a=1-13 selection_b=14-22 scaling=1.00 benchmark_Eint=2.647 benchmark_unit=kcal/mol group=PS contact=P-O
  C    2.680204605   0.705092983  -1.879184675
  C    2.396204605   2.294092983   0.447815325
  C    3.257204605  -0.394907017   0.664815325
  H    2.095204605   1.395092983  -2.487184675
  H    2.158204605   2.361092983   1.508815325
  H    3.229204605  -1.417907017   0.289815325
  H    2.630204605  -0.274907017  -2.353184675
  H    3.720204605   1.039092983  -1.869184675
  H    1.800204605   3.043092983  -0.073184675
  H    3.454204605   2.525092983   0.307815325
  H    3.055204605  -0.428907017   1.735815325
  H    4.259204605   0.010092983   0.508815325
  P    1.949204605   0.609092983  -0.179184675
  C   -1.650446309  -1.478207151  -0.417896170
  C   -2.964562179  -1.557347983  -0.099845531
  C   -3.258794608  -0.387965856   0.674063842
  C   -2.099335082   0.306228124   0.762462512
  H   -1.825174738   1.231744045   1.234829305
  H   -4.205293373  -0.109582037   1.102154414
  H   -0.984560650  -2.109023989  -0.976651398
  H   -3.642530020  -2.344468087  -0.377504583
  O   -1.104119817  -0.345018492   0.101498504
