16
charge=0 charge_a=0 charge_b=0 selection_a=1-8 selection_b=9-16 scaling=1.10 benchmark_Eint=0.928 benchmark_unit=kcal/mol group=PS contact=P-P
  C    0.666555839   1.619708927  -3.042743516
  C    0.203555839   3.223708927  -0.834743516
  H    0.767555839   2.623708927  -3.449743516
  H   -0.014444161   3.506708927   0.187256484
  H    0.359555839   4.041708927  -1.527743516
  H   -0.121444161   1.091708927  -3.581743516
  H    1.593555839   1.068708927  -3.211743516
  P    0.276555839   1.616708927  -1.229743516
  C   -0.652159717  -1.524633319   2.970032351
  C   -0.185628188  -3.128658164   0.762793889
  H   -0.741366555  -2.528716288   3.379575426
  H    0.033122623  -3.411663446  -0.259044206
  H   -0.340086627  -3.946669010   1.456126311
  H   -1.585081134  -0.984525973   3.137933169
  H    0.130139111  -0.985658895   3.507625240
  P   -0.260294356  -1.521646442   1.157434597
