21
charge=0 charge_a=0 charge_b=0 selection_a=1-13 selection_b=14-21 scaling=1.05 benchmark_Eint=1.785 benchmark_unit=kcal/mol group=PS contact=P-P
  C    2.680204605   0.705092983  -1.879184675
  C    2.396204605   2.294092983   0.447815325
  C    3.257204605  -0.394907017   0.664815325
  H    2.095204605   1.395092983  -2.487184675
  H    2.158204605   2.361092983   1.508815325
  H    3.229204605  -1.417907017   0.289815325
  H    2.630204605  -0.274907017  -2.353184675
  H    3.720204605   1.039092983  -1.869184675
  H    1.800204605   3.043092983  -0.073184675
  H    3.454204605   2.525092983   0.307815325
  H    3.055204605  -0.428907017   1.735815325
  H    4.259204605   0.010092983   0.508815325
  P    1.949204605   0.609092983  -0.179184675
  C   -2.612470974  -1.331175486   1.634482964
  C   -2.991203881  -0.474852705  -0.970458817
  H   -3.660260120  -1.563284906   1.455236979
  H   -2.771161675  -0.054034892  -1.943387795
  H   -4.009425167  -0.814019724  -0.822471839
  H   -2.535585878  -0.655277380   2.487418736
  H   -2.082736231  -2.246795223   1.903764599
  P   -1.787420623  -0.558538265   0.164312347
