8
charge=0 charge_a=0 charge_b=0 selection_a=1-4 selection_b=5-8 scaling=1.10 benchmark_Eint=0.841 benchmark_unit=kcal/mol group=PS contact=P-P
  H    2.629997318   0.717791816  -1.389164127
  H    2.351997318   1.939791816   0.252835873
  H    3.016997318   0.000791816   0.508835873
  P    1.939997318   0.644791816  -0.152164127
  H   -2.973814959   0.032767779  -0.487701488
  H   -2.310585630  -1.912929521  -0.284918660
  H   -2.572583561  -0.731014945   1.388974114
  P   -1.892661383  -0.629058896   0.148451322
