12
charge=0 charge_a=0 charge_b=0 selection_a=1-4 selection_b=5-12 scaling=1.10 benchmark_Eint=0.871 benchmark_unit=kcal/mol group=PS contact=P-P
  H    2.629997318   0.717791816  -1.389164127
  H    2.351997318   1.939791816   0.252835873
  H    3.016997318   0.000791816   0.508835873
  P    1.939997318   0.644791816  -0.152164127
  C   -3.325963820   0.305472052   0.813321714
  C   -2.488885752  -2.087472280  -0.298238778
  H   -4.243265669  -0.278871392   0.782240251
  H   -1.831681830  -2.833045880  -0.727540550
  H   -3.527477718  -2.377721786  -0.194359275
  H   -3.465118423   1.222449446   0.238832850
  H   -3.123757107   0.601990572   1.844185533
  P   -1.863561424  -0.619387018   0.146168860
