10
charge=0 charge_a=0 charge_b=0 selection_a=1-6 selection_b=7-10 scaling=1.15 benchmark_Eint=0.273 benchmark_unit=kcal/mol group=PS contact=S-H
  C    0.170692492  -0.415619026  -3.272120308
  H   -0.260307508  -1.293619026  -3.744120308
  H    1.495692492  -1.712619026  -1.751120308
  H    1.036692492  -0.071619026  -3.832120308
  H   -0.574307508   0.376380974  -3.258120308
  S    0.595692492  -0.741619026  -1.528120308
  B   -0.724809533   0.902365813   1.859342164
  H   -0.331866906   0.413164200   0.851332803
  H    0.018651652   1.058182679   2.772874086
  H   -1.860625499   1.235209934   1.954986722
