11
charge=0 charge_a=0 charge_b=0 selection_a=1-6 selection_b=7-11 scaling=1.15 benchmark_Eint=0.065 benchmark_unit=kcal/mol group=PS contact=S-H
  C    0.170692492  -0.415619026  -3.272120308
  H   -0.260307508  -1.293619026  -3.744120308
  H    1.495692492  -1.712619026  -1.751120308
  H    1.036692492  -0.071619026  -3.832120308
  H   -0.574307508   0.376380974  -3.258120308
  S    0.595692492  -0.741619026  -1.528120308
  C   -0.646420718   0.804774124   1.658252605
  H   -0.286435425   0.356603388   0.734788160
  H    0.173793076   0.876718633   2.369891783
  H   -1.035246106   1.798711495   1.452164472
  H   -1.436499972   0.185807291   2.077823614
