14
charge=0 charge_a=0 charge_b=0 selection_a=1-9 selection_b=10-14 scaling=1.05 benchmark_Eint=1.329 benchmark_unit=kcal/mol group=PS contact=S-H
  C    2.710400666  -1.252991357   1.254353618
  C    3.069400666  -2.471991357   1.753353618
  C    2.004400666  -3.412991357   1.713353618
  C    0.860400666  -2.888991357   1.185353618
  H   -0.089599334  -3.373991357   1.037353618
  H    2.085400666  -4.431991357   2.061353618
  H    3.313400666  -0.365991357   1.165353618
  H    4.055400666  -2.690991357   2.135353618
  S    1.073400666  -1.244991357   0.733353618
  C   -1.045113660   1.212182474  -0.714027770
  H   -0.396442646   0.459816808  -0.270851936
  H   -0.851240211   1.273461836  -1.783146531
  H   -2.084133737   0.938412503  -0.549539828
  H   -0.847144080   2.178000989  -0.254258654
