14
charge=0 charge_a=0 charge_b=0 selection_a=1-9 selection_b=10-14 scaling=1.10 benchmark_Eint=0.565 benchmark_unit=kcal/mol group=PS contact=S-H
  C    2.710400666  -1.252991357   1.254353618
  C    3.069400666  -2.471991357   1.753353618
  C    2.004400666  -3.412991357   1.713353618
  C    0.860400666  -2.888991357   1.185353618
  H   -0.089599334  -3.373991357   1.037353618
  H    2.085400666  -4.431991357   2.061353618
  H    3.313400666  -0.365991357   1.165353618
  H    4.055400666  -2.690991357   2.135353618
  S    1.073400666  -1.244991357   0.733353618
  C   -1.115039750   1.293286744  -0.761801684
  H   -0.466368736   0.540921078  -0.318625850
  H   -0.921166301   1.354566106  -1.830920445
  H   -2.154059827   1.019516773  -0.597313742
  H   -0.917070170   2.259105259  -0.302032568
