11
charge=0 charge_a=0 charge_b=0 selection_a=1-6 selection_b=7-11 scaling=1.00 benchmark_Eint=2.508 benchmark_unit=kcal/mol group=PS contact=S-H
  C    0.170692492  -0.415619026  -3.272120308
  H   -0.260307508  -1.293619026  -3.744120308
  H    1.495692492  -1.712619026  -1.751120308
  H    1.036692492  -0.071619026  -3.832120308
  H   -0.574307508   0.376380974  -3.258120308
  S    0.595692492  -0.741619026  -1.528120308
  C   -0.531379260   0.661551009   1.363138615
  H   -0.171393967   0.213380274   0.439674170
  H    0.288834534   0.733495519   2.074777794
  H   -0.920204648   1.655488381   1.157050482
  H   -1.321458515   0.042584177   1.782709624
