14
charge=0 charge_a=0 charge_b=0 selection_a=1-10 selection_b=11-14 scaling=1.05 benchmark_Eint=1.453 benchmark_unit=kcal/mol group=PS contact=S-H
  C    2.036993965   0.037917158  -2.755313450
  C    1.525993965   0.351917158  -4.132313450
  C    3.506993965  -0.259082842  -2.678313450
  H    1.713993965  -0.493082842  -4.800313450
  H    3.751993965  -1.104082842  -3.329313450
  H    2.072993965   1.200917158  -4.551313450
  H    0.463993965   0.573917158  -4.125313450
  H    3.819993965  -0.485082842  -1.663313450
  H    4.080993965   0.592917158  -3.053313450
  S    1.069993965   0.019917158  -1.447313450
  B   -1.073639134  -0.019985010   1.452244042
  H   -0.367828259  -0.006846855   0.497538120
  H   -1.449508409   1.002296325   1.926814543
  H   -1.403336678  -1.054348338   1.933287735
