15
charge=0 charge_a=0 charge_b=0 selection_a=1-10 selection_b=11-15 scaling=1.15 benchmark_Eint=-0.513 benchmark_unit=kcal/mol group=PS contact=S-C
  C    2.036993965   0.037917158  -2.755313450
  C    1.525993965   0.351917158  -4.132313450
  C    3.506993965  -0.259082842  -2.678313450
  H    1.713993965  -0.493082842  -4.800313450
  H    3.751993965  -1.104082842  -3.329313450
  H    2.072993965   1.200917158  -4.551313450
  H    0.463993965   0.573917158  -4.125313450
  H    3.819993965  -0.485082842  -1.663313450
  H    4.080993965   0.592917158  -3.053313450
  S    1.069993965   0.019917158  -1.447313450
  C   -0.934432274  -0.016811312   1.264633602
  H   -1.580837189  -0.028470972   2.139423712
  H   -1.498476475  -0.342922864   0.392932739
  H   -0.564350518   0.991882987   1.099878309
  H   -0.094879914  -0.689706729   1.425097282
