16
charge=0 charge_a=0 charge_b=0 selection_a=1-10 selection_b=11-16 scaling=1.00 benchmark_Eint=2.234 benchmark_unit=kcal/mol group=PS contact=S-C
  C    2.036993965   0.037917158  -2.755313450
  C    1.525993965   0.351917158  -4.132313450
  C    3.506993965  -0.259082842  -2.678313450
  H    1.713993965  -0.493082842  -4.800313450
  H    3.751993965  -1.104082842  -3.329313450
  H    2.072993965   1.200917158  -4.551313450
  H    0.463993965   0.573917158  -4.125313450
  H    3.819993965  -0.485082842  -1.663313450
  H    4.080993965   0.592917158  -3.053313450
  S    1.069993965   0.019917158  -1.447313450
  C   -0.686609183  -0.012780730   0.928733000
  C   -0.086920585   1.075920468   1.387062890
  H   -1.555855835   0.043339712   0.286874174
  H   -0.332808004  -1.004332607   1.178121455
  H   -0.440721764   2.067472345   1.137674435
  H    0.781431005   1.020244650   2.028955965
