15
charge=0 charge_a=0 charge_b=0 selection_a=1-9 selection_b=10-15 scaling=1.15 benchmark_Eint=-0.136 benchmark_unit=kcal/mol group=PS contact=S-C
  C    2.710400666  -1.252991357   1.254353618
  C    3.069400666  -2.471991357   1.753353618
  C    2.004400666  -3.412991357   1.713353618
  C    0.860400666  -2.888991357   1.185353618
  H   -0.089599334  -3.373991357   1.037353618
  H    2.085400666  -4.431991357   2.061353618
  H    3.313400666  -0.365991357   1.165353618
  H    4.055400666  -2.690991357   2.135353618
  S    1.073400666  -1.244991357   0.733353618
  C   -1.046118399   1.213347827  -0.714714214
  C   -0.071764712   1.567649670  -1.539376627
  H   -1.760821582   0.443823419  -0.975009329
  H   -1.168854386   1.679720223   0.253778257
  H    0.050971275   1.101277274  -2.507869098
  H    0.642319714   2.336992361  -1.279845790
