11
charge=0 charge_a=0 charge_b=0 selection_a=1-6 selection_b=7-11 scaling=1.10 benchmark_Eint=0.078 benchmark_unit=kcal/mol group=PS contact=S-C
  C    0.170692492  -0.415619026  -3.272120308
  H   -0.260307508  -1.293619026  -3.744120308
  H    1.495692492  -1.712619026  -1.751120308
  H    1.036692492  -0.071619026  -3.832120308
  H   -0.574307508   0.376380974  -3.258120308
  S    0.595692492  -0.741619026  -1.528120308
  C   -0.506938831   0.631229333   1.301923651
  H   -0.866648489   1.079124681   2.225629080
  H   -0.439272848   1.396077097   0.530699811
  H    0.475330340   0.196194956   1.467638366
  H   -1.198459223  -0.145223182   0.982070498
