18
charge=0 charge_a=0 charge_b=0 selection_a=1-6 selection_b=7-18 scaling=1.05 benchmark_Eint=0.930 benchmark_unit=kcal/mol group=PS contact=S-C
  C    0.170692492  -0.415619026  -3.272120308
  H   -0.260307508  -1.293619026  -3.744120308
  H    1.495692492  -1.712619026  -1.751120308
  H    1.036692492  -0.071619026  -3.832120308
  H   -0.574307508   0.376380974  -3.258120308
  S    0.595692492  -0.741619026  -1.528120308
  C   -0.448738464   0.558665732   1.151141517
  C   -0.906105642  -0.685153231   1.576493900
  C   -0.068822321  -1.520407984   2.308245319
  C    1.224944992  -1.112872308   2.614241743
  C    1.681926889   0.129944800   2.189810143
  C    0.844616251   0.966199131   1.458048850
  H   -1.100157751   1.208526722   0.582155923
  H   -1.912342650  -1.001136185   1.337291358
  H   -0.424523228  -2.487280462   2.637625759
  H    1.876364280  -1.762733298   3.183227336
  H    2.688549179   0.446929609   2.428091902
  H    1.198908751   1.933015972   1.126932527
