12
charge=0 charge_a=0 charge_b=0 selection_a=1-6 selection_b=7-12 scaling=1.05 benchmark_Eint=1.165 benchmark_unit=kcal/mol group=PS contact=S-C
  C    0.170692492  -0.415619026  -3.272120308
  H   -0.260307508  -1.293619026  -3.744120308
  H    1.495692492  -1.712619026  -1.751120308
  H    1.036692492  -0.071619026  -3.832120308
  H   -0.574307508   0.376380974  -3.258120308
  S    0.595692492  -0.741619026  -1.528120308
  C   -0.480591465   0.598321750   1.232853506
  C    0.316148480  -0.198069888   1.929939454
  H   -0.154052032   1.570618066   0.888275690
  H   -1.492248180   0.310199229   0.979711048
  H    1.327805196   0.090052633   2.183081913
  H   -0.009986611  -1.169551466   2.274932854
