11
charge=0 charge_a=0 charge_b=0 selection_a=1-6 selection_b=7-11 scaling=1.25 benchmark_Eint=-0.497 benchmark_unit=kcal/mol group=PS contact=S-C
  C    0.170692492  -0.415619026  -3.272120308
  H   -0.260307508  -1.293619026  -3.744120308
  H    1.495692492  -1.712619026  -1.751120308
  H    1.036692492  -0.071619026  -3.832120308
  H   -0.574307508   0.376380974  -3.258120308
  S    0.595692492  -0.741619026  -1.528120308
  C   -0.645064396   0.803191458   1.656254926
  H   -1.004774054   1.251086806   2.579960355
  H   -0.577398413   1.568039222   0.885031086
  H    0.337204775   0.368157081   1.821969641
  H   -1.336584788   0.026738943   1.336401773
