15
charge=0 charge_a=0 charge_b=0 selection_a=1-9 selection_b=10-15 scaling=1.10 benchmark_Eint=0.285 benchmark_unit=kcal/mol group=PS contact=S-C
  C    2.710400666  -1.252991357   1.254353618
  C    3.069400666  -2.471991357   1.753353618
  C    2.004400666  -3.412991357   1.713353618
  C    0.860400666  -2.888991357   1.185353618
  H   -0.089599334  -3.373991357   1.037353618
  H    2.085400666  -4.431991357   2.061353618
  H    3.313400666  -0.365991357   1.165353618
  H    4.055400666  -2.690991357   2.135353618
  S    1.073400666  -1.244991357   0.733353618
  C   -0.954074292   1.106589818  -0.651829141
  C    0.020279395   1.460891661  -1.476491554
  H   -1.668777475   0.337065411  -0.912124256
  H   -1.076810279   1.572962214   0.316663330
  H    0.143015382   0.994519265  -2.444984025
  H    0.734363821   2.230234353  -1.216960717
