9
charge=0 charge_a=0 charge_b=0 selection_a=1-3 selection_b=4-9 scaling=1.15 benchmark_Eint=-0.024 benchmark_unit=kcal/mol group=PS contact=S-C
  H    0.880172729  -2.754189816   0.122632441
  H    0.117172729  -2.395189816  -1.621367559
  S    0.329172729  -1.699189816  -0.494367559
  C   -0.317285936   1.637830184   0.476515397
  C    0.204320400   1.391885780   1.669160013
  H    0.287315032   1.994512701  -0.346866198
  H   -1.370599341   1.493369577   0.275998555
  H    1.257633805   1.536346386   1.869676855
  H   -0.399643861   1.035958903   2.492387947
