10
charge=0 charge_a=0 charge_b=0 selection_a=1-6 selection_b=7-10 scaling=1.25 benchmark_Eint=0.028 benchmark_unit=kcal/mol group=PS contact=S-C
  C    0.170692492  -0.415619026  -3.272120308
  H   -0.260307508  -1.293619026  -3.744120308
  H    1.495692492  -1.712619026  -1.751120308
  H    1.036692492  -0.071619026  -3.832120308
  H   -0.574307508   0.376380974  -3.258120308
  S    0.595692492  -0.741619026  -1.528120308
  C   -0.705647398   0.878509538   1.810185848
  C    0.013407732   0.159420564   2.439472562
  H   -1.343351184   1.517251588   1.251605080
  H    0.651782048  -0.478580152   2.998081833
