18
charge=0 charge_a=0 charge_b=0 selection_a=1-6 selection_b=7-18 scaling=1.10 benchmark_Eint=0.026 benchmark_unit=kcal/mol group=PS contact=S-C
  C    0.170692492  -0.415619026  -3.272120308
  H   -0.260307508  -1.293619026  -3.744120308
  H    1.495692492  -1.712619026  -1.751120308
  H    1.036692492  -0.071619026  -3.832120308
  H   -0.574307508   0.376380974  -3.258120308
  S    0.595692492  -0.741619026  -1.528120308
  C   -0.498429146   0.620529119   1.278612220
  C   -0.955796324  -0.623289844   1.703964603
  C   -0.118513003  -1.458544597   2.435716022
  C    1.175254310  -1.051008921   2.741712445
  C    1.632236207   0.191808187   2.317280846
  C    0.794925569   1.028062518   1.585519553
  H   -1.149848433   1.270390109   0.709626626
  H   -1.962033332  -0.939272798   1.464762061
  H   -0.474213910  -2.425417075   2.765096461
  H    1.826673598  -1.700869911   3.310698039
  H    2.638858497   0.508792997   2.555562604
  H    1.149218069   1.994879359   1.254403229
