10
charge=0 charge_a=0 charge_b=0 selection_a=1-6 selection_b=7-10 scaling=1.10 benchmark_Eint=0.641 benchmark_unit=kcal/mol group=PS contact=S-C
  C    0.170692492  -0.415619026  -3.272120308
  H   -0.260307508  -1.293619026  -3.744120308
  H    1.495692492  -1.712619026  -1.751120308
  H    1.036692492  -0.071619026  -3.832120308
  H   -0.574307508   0.376380974  -3.258120308
  S    0.595692492  -0.741619026  -1.528120308
  C   -0.549393948   0.683978747   1.409351402
  C    0.169661182  -0.035110227   2.038638115
  H   -1.187097734   1.322720798   0.850770634
  H    0.808035498  -0.673110943   2.597247387
