18
charge=0 charge_a=0 charge_b=0 selection_a=1-6 selection_b=7-18 scaling=1.25 benchmark_Eint=-0.697 benchmark_unit=kcal/mol group=PS contact=S-C
  C    0.170692492  -0.415619026  -3.272120308
  H   -0.260307508  -1.293619026  -3.744120308
  H    1.495692492  -1.712619026  -1.751120308
  H    1.036692492  -0.071619026  -3.832120308
  H   -0.574307508   0.376380974  -3.258120308
  S    0.595692492  -0.741619026  -1.528120308
  C   -0.647732850   0.806407688   1.661618596
  C   -1.105100028  -0.437411276   2.086970979
  C   -0.267816707  -1.272666028   2.818722398
  C    1.025950606  -0.865130352   3.124718821
  C    1.482932503   0.377686756   2.700287222
  C    0.645621865   1.213941087   1.968525929
  H   -1.299152137   1.456268678   1.092633002
  H   -2.111337037  -0.753394229   1.847768437
  H   -0.623517615  -2.239538506   3.148102837
  H    1.677369893  -1.514991342   3.693704415
  H    2.489554793   0.694671565   2.938568980
  H    0.999914364   2.180757928   1.637409605
