13
charge=0 charge_a=0 charge_b=0 selection_a=1-7 selection_b=8-13 scaling=1.05 benchmark_Eint=-0.428 benchmark_unit=kcal/mol group=PS contact=S-N
  C   -1.498059411  -0.000000000  -1.600000000
  H   -1.808519061   0.012758830  -2.641457161
  H   -1.835724257   0.896679702  -1.094215496
  H   -1.834939241  -0.909253068  -1.116129316
  N    0.000000000   0.000000000  -1.600000000
  O    0.555879823  -1.083121416  -1.626657474
  O    0.555981287   1.083622540  -1.600000000
  C    1.369281667  -0.000511580   2.609173725
  H    1.349124288  -0.892054855   3.228990851
  H   -1.007670843   0.000376478   2.290785637
  H    1.349837282   0.892107772   3.229451573
  H    2.286099248  -0.000543684   2.024425470
  S   -0.000000000  -0.000000000   1.403560000
