7
charge=0 charge_a=0 charge_b=0 selection_a=1-3 selection_b=4-7 scaling=1.10 benchmark_Eint=0.823 benchmark_unit=kcal/mol group=PS contact=S-N
  H    0.880172729  -2.754189816   0.122632441
  H    0.117172729  -2.395189816  -1.621367559
  S    0.329172729  -1.699189816  -0.494367559
  N   -0.283893191   1.465456817   0.426364555
  H    0.216823329   1.711862553   1.271622610
  H   -1.268063815   1.617606861   0.605820812
  H   -0.004563417   2.122590986  -0.290171251
