20
charge=0 charge_a=0 charge_b=0 selection_a=1-9 selection_b=10-20 scaling=1.25 benchmark_Eint=-0.455 benchmark_unit=kcal/mol group=PS contact=S-N
  C    2.710400666  -1.252991357   1.254353618
  C    3.069400666  -2.471991357   1.753353618
  C    2.004400666  -3.412991357   1.713353618
  C    0.860400666  -2.888991357   1.185353618
  H   -0.089599334  -3.373991357   1.037353618
  H    2.085400666  -4.431991357   2.061353618
  H    3.313400666  -0.365991357   1.165353618
  H    4.055400666  -2.690991357   2.135353618
  S    1.073400666  -1.244991357   0.733353618
  C   -1.726421831   1.071468207  -1.920063491
  C   -2.563303900   1.999364091  -2.528332042
  C   -2.772834979   3.217714496  -1.895848037
  C   -2.136367844   3.454465194  -0.684874589
  C   -1.318447639   2.460700747  -0.159767207
  N   -1.109848583   1.287265731  -0.758255048
  H   -1.541791208   0.110356451  -2.388093112
  H   -3.036854564   1.768742489  -3.472641550
  H   -3.417157488   3.965678206  -2.337709772
  H   -2.268603037   4.387477949  -0.155370053
  H   -0.807166112   2.613401526   0.783689561
