16
charge=0 charge_a=0 charge_b=0 selection_a=1-9 selection_b=10-16 scaling=1.00 benchmark_Eint=2.482 benchmark_unit=kcal/mol group=PS contact=S-N
  C    2.710400666  -1.252991357   1.254353618
  C    3.069400666  -2.471991357   1.753353618
  C    2.004400666  -3.412991357   1.713353618
  C    0.860400666  -2.888991357   1.185353618
  H   -0.089599334  -3.373991357   1.037353618
  H    2.085400666  -4.431991357   2.061353618
  H    3.313400666  -0.365991357   1.165353618
  H    4.055400666  -2.690991357   2.135353618
  S    1.073400666  -1.244991357   0.733353618
  N   -0.718128899   0.832926885  -0.490629867
  C    0.063953753   1.496652489  -1.534291233
  H   -1.026460797   1.495773153   0.207670401
  H    0.392797923   0.755805890  -2.262876732
  H    0.959613413   1.930462490  -1.089332071
  H   -0.462538940   2.291842141  -2.075565528
  H   -1.549252873   0.406396039  -0.877243858
