21
charge=0 charge_a=0 charge_b=0 selection_a=1-10 selection_b=11-21 scaling=1.10 benchmark_Eint=0.221 benchmark_unit=kcal/mol group=PS contact=S-N
  C    2.036993965   0.037917158  -2.755313450
  C    1.525993965   0.351917158  -4.132313450
  C    3.506993965  -0.259082842  -2.678313450
  H    1.713993965  -0.493082842  -4.800313450
  H    3.751993965  -1.104082842  -3.329313450
  H    2.072993965   1.200917158  -4.551313450
  H    0.463993965   0.573917158  -4.125313450
  H    3.819993965  -0.485082842  -1.663313450
  H    4.080993965   0.592917158  -3.053313450
  S    1.069993965   0.019917158  -1.447313450
  C   -1.773840724   0.790944705   1.054985712
  C   -2.629496097   0.815094437   2.149802442
  C   -2.372671656  -0.043165022   3.210815594
  C   -1.272388845  -0.886107691   3.130669521
  C   -0.477721537  -0.833347615   1.991363046
  N   -0.714637081  -0.013302449   0.966644572
  H   -1.946507628   1.448825632   0.209849731
  H   -3.474144169   1.489976514   2.165952285
  H   -3.015519453  -0.053758863   4.080572732
  H   -1.032016038  -1.571366212   3.931304065
  H    0.388444008  -1.478081429   1.896956698
