21
charge=0 charge_a=0 charge_b=0 selection_a=1-10 selection_b=11-21 scaling=1.25 benchmark_Eint=-0.410 benchmark_unit=kcal/mol group=PS contact=S-N
  C    2.036993965   0.037917158  -2.755313450
  C    1.525993965   0.351917158  -4.132313450
  C    3.506993965  -0.259082842  -2.678313450
  H    1.713993965  -0.493082842  -4.800313450
  H    3.751993965  -1.104082842  -3.329313450
  H    2.072993965   1.200917158  -4.551313450
  H    0.463993965   0.573917158  -4.125313450
  H    3.819993965  -0.485082842  -1.663313450
  H    4.080993965   0.592917158  -3.053313450
  S    1.069993965   0.019917158  -1.447313450
  C   -2.017383240   0.786411339   1.384410334
  C   -2.873038613   0.810561071   2.479227065
  C   -2.616214171  -0.047698388   3.540240216
  C   -1.515931360  -0.890641057   3.460094143
  C   -0.721264052  -0.837880981   2.320787668
  N   -0.958179596  -0.017835815   1.296069195
  H   -2.190050143   1.444292265   0.539274353
  H   -3.717686684   1.485443148   2.495376907
  H   -3.259061968  -0.058292229   4.409997355
  H   -1.275558553  -1.575899578   4.260728687
  H    0.144901493  -1.482614795   2.226381321
