12
charge=0 charge_a=0 charge_b=0 selection_a=1-9 selection_b=10-12 scaling=1.15 benchmark_Eint=0.116 benchmark_unit=kcal/mol group=PS contact=S-N
  C    2.710400666  -1.252991357   1.254353618
  C    3.069400666  -2.471991357   1.753353618
  C    2.004400666  -3.412991357   1.713353618
  C    0.860400666  -2.888991357   1.185353618
  H   -0.089599334  -3.373991357   1.037353618
  H    2.085400666  -4.431991357   2.061353618
  H    3.313400666  -0.365991357   1.165353618
  H    4.055400666  -2.690991357   2.135353618
  S    1.073400666  -1.244991357   0.733353618
  C   -1.675898533   1.943802770  -1.144983687
  H   -2.310761721   2.681184993  -1.579762009
  N   -0.993062590   1.151810671  -0.678466174
