9
charge=0 charge_a=0 charge_b=0 selection_a=1-6 selection_b=7-9 scaling=1.25 benchmark_Eint=0.502 benchmark_unit=kcal/mol group=PS contact=S-N
  C    0.170692492  -0.415619026  -3.272120308
  H   -0.260307508  -1.293619026  -3.744120308
  H    1.495692492  -1.712619026  -1.751120308
  H    1.036692492  -0.071619026  -3.832120308
  H   -0.574307508   0.376380974  -3.258120308
  S    0.595692492  -0.741619026  -1.528120308
  C   -1.065752367   1.326829267   2.733957298
  H   -1.417896755   1.765374537   3.639213271
  N   -0.686806968   0.855053776   1.761854798
