7
charge=0 charge_a=0 charge_b=0 selection_a=1-3 selection_b=4-7 scaling=1.00 benchmark_Eint=2.495 benchmark_unit=kcal/mol group=PS contact=S-N
  H    0.880172729  -2.754189816   0.122632441
  H    0.117172729  -2.395189816  -1.621367559
  S    0.329172729  -1.699189816  -0.494367559
  N   -0.228182536   1.177878381   0.342695592
  H    0.272533985   1.424284117   1.187953647
  H   -1.212353159   1.330028424   0.522151849
  H    0.051147239   1.835012550  -0.373840214
