16
charge=0 charge_a=0 charge_b=0 selection_a=1-9 selection_b=10-16 scaling=1.05 benchmark_Eint=-0.410 benchmark_unit=kcal/mol group=PS contact=S-N
  C    2.710400666  -1.252991357   1.254353618
  C    3.069400666  -2.471991357   1.753353618
  C    2.004400666  -3.412991357   1.713353618
  C    0.860400666  -2.888991357   1.185353618
  H   -0.089599334  -3.373991357   1.037353618
  H    2.085400666  -4.431991357   2.061353618
  H    3.313400666  -0.365991357   1.165353618
  H    4.055400666  -2.690991357   2.135353618
  S    1.073400666  -1.244991357   0.733353618
  C    0.404735671   1.209030130  -1.408863952
  H    0.007909426   2.003819042  -2.034979369
  H    0.666262373   0.347901663  -2.012131347
  H    1.233525726   1.574451265  -0.813940059
  N   -0.697042539   0.808469721  -0.476223543
  O   -0.773368166   1.404940598   0.582673001
  O   -1.454515687  -0.067195716  -0.854109073
