16
charge=0 charge_a=0 charge_b=0 selection_a=1-9 selection_b=10-16 scaling=1.05 benchmark_Eint=1.218 benchmark_unit=kcal/mol group=PS contact=S-N
  C    2.710400666  -1.252991357   1.254353618
  C    3.069400666  -2.471991357   1.753353618
  C    2.004400666  -3.412991357   1.713353618
  C    0.860400666  -2.888991357   1.185353618
  H   -0.089599334  -3.373991357   1.037353618
  H    2.085400666  -4.431991357   2.061353618
  H    3.313400666  -0.365991357   1.165353618
  H    4.055400666  -2.690991357   2.135353618
  S    1.073400666  -1.244991357   0.733353618
  N   -0.807543175   0.936634665  -0.551718224
  C   -0.025460523   1.600360269  -1.595379590
  H   -1.115875073   1.599480933   0.146582044
  H    0.303383647   0.859513670  -2.323965088
  H    0.870199137   2.034170270  -1.150420427
  H   -0.551953216   2.395549921  -2.136653884
  H   -1.638667149   0.510103819  -0.938332214
