12
charge=0 charge_a=0 charge_b=0 selection_a=1-6 selection_b=7-12 scaling=1.25 benchmark_Eint=0.476 benchmark_unit=kcal/mol group=PS contact=S-O
  C    0.278322841  -0.303120487  -2.583741411
  H   -0.093677159  -1.181120487  -3.119741411
  H    1.339322841  -1.257120487  -1.244741411
  H    1.114322841   0.125879513  -3.142741411
  H   -0.518677159   0.434879513  -2.537741411
  O    0.634322841  -0.607120487  -1.240741411
  C   -0.590577554   0.607952222   3.566687905
  H   -1.465693324   0.211130199   4.072784408
  H   -1.896071378   1.783335882   1.934072173
  H   -0.256220194   1.522576410   4.049968104
  H    0.208451484  -0.127790641   3.618841871
  S   -0.916045646   0.876761867   1.791793853
