12
charge=0 charge_a=0 charge_b=0 selection_a=1-3 selection_b=4-12 scaling=1.00 benchmark_Eint=2.190 benchmark_unit=kcal/mol group=PS contact=S-O
  H   -1.004584200  -0.486313027   1.938960870
  H   -0.430584200   0.925686973   1.990960870
  O   -0.518584200   0.158686973   1.419960870
  C    1.949253716   0.230232558  -2.043970880
  C    1.921262887  -0.112234187  -3.365249065
  C    0.678977981  -0.683644663  -3.754510263
  C   -0.209092976  -0.762881394  -2.721481940
  H   -1.214323210  -1.148879874  -2.733579414
  H    0.456442830  -1.020291811  -4.756095409
  H    2.755785270   0.676881697  -1.488713823
  H    2.754546934   0.036703528  -4.035723713
  S    0.462784540  -0.141612255  -1.267173080
