9
charge=0 charge_a=0 charge_b=0 selection_a=1-6 selection_b=7-9 scaling=1.05 benchmark_Eint=1.201 benchmark_unit=kcal/mol group=PS contact=S-O
  C    0.278322841  -0.303120487  -2.583741411
  H   -0.093677159  -1.181120487  -3.119741411
  H    1.339322841  -1.257120487  -1.244741411
  H    1.114322841   0.125879513  -3.142741411
  H   -0.518677159   0.434879513  -2.537741411
  O    0.634322841  -0.607120487  -1.240741411
  H   -1.605486092   1.506097634   1.434720832
  H   -0.433153215   0.445134957   2.553907959
  S   -0.632434896   0.605313504   1.237048572
