12
charge=0 charge_a=0 charge_b=0 selection_a=1-3 selection_b=4-12 scaling=1.25 benchmark_Eint=-0.497 benchmark_unit=kcal/mol group=PS contact=S-O
  H    0.880172729  -2.754189816   0.122632441
  H    0.117172729  -2.395189816  -1.621367559
  S    0.329172729  -1.699189816  -0.494367559
  C   -1.511834841   2.104720263   0.819731229
  C   -1.385035393   3.416763259   1.130834230
  C    0.000115582   3.736947145   0.952502926
  C    0.601464552   2.593210034   0.547150194
  H    1.614349628   2.339709491   0.292836811
  H    0.475078906   4.689415977   1.106878979
  H   -2.343185125   1.424955558   0.801908441
  H   -2.172556031   4.077055109   1.447249966
  O   -0.306807271   1.583739308   0.460778030
