19
charge=0 charge_a=0 charge_b=0 selection_a=1-10 selection_b=11-19 scaling=1.10 benchmark_Eint=-0.128 benchmark_unit=kcal/mol group=PS contact=S-O
  C    2.036993965   0.037917158  -2.755313450
  C    1.525993965   0.351917158  -4.132313450
  C    3.506993965  -0.259082842  -2.678313450
  H    1.713993965  -0.493082842  -4.800313450
  H    3.751993965  -1.104082842  -3.329313450
  H    2.072993965   1.200917158  -4.551313450
  H    0.463993965   0.573917158  -4.125313450
  H    3.819993965  -0.485082842  -1.663313450
  H    4.080993965   0.592917158  -3.053313450
  S    1.069993965   0.019917158  -1.447313450
  C   -0.557299484  -0.831772769   1.988042694
  C   -1.535387815  -0.566055706   2.886406573
  C   -2.315462790   0.496231830   2.324275607
  C   -1.747674544   0.788665348   1.130054043
  H   -1.973161030   1.501719101   0.358313031
  H   -3.178382514   0.971394470   2.755795035
  H    0.255355823  -1.533598507   1.964105563
  H   -1.687261012  -1.059374854   3.829732472
  O   -0.670672217  -0.012484075   0.907176070
