15
charge=0 charge_a=0 charge_b=0 selection_a=1-6 selection_b=7-15 scaling=1.00 benchmark_Eint=2.211 benchmark_unit=kcal/mol group=PS contact=S-O
  C    0.170692492  -0.415619026  -3.272120308
  H   -0.260307508  -1.293619026  -3.744120308
  H    1.495692492  -1.712619026  -1.751120308
  H    1.036692492  -0.071619026  -3.832120308
  H   -0.574307508   0.376380974  -3.258120308
  S    0.595692492  -0.741619026  -1.528120308
  C   -1.525275494   0.169472791   1.465580914
  C   -1.636886749   0.904800287   2.597462711
  C   -0.426506893   1.664620449   2.700501172
  C    0.321277468   1.329042787   1.622413892
  H    1.291027676   1.631191933   1.271465994
  H   -0.157496213   2.362252620   3.473522264
  H   -2.167267299  -0.539377188   0.976787268
  H   -2.471090069   0.909990520   3.275969072
  O   -0.333606328   0.415329727   0.855794914
