12
charge=0 charge_a=0 charge_b=0 selection_a=1-6 selection_b=7-12 scaling=1.15 benchmark_Eint=0.700 benchmark_unit=kcal/mol group=PS contact=S-O
  C    0.278322841  -0.303120487  -2.583741411
  H   -0.093677159  -1.181120487  -3.119741411
  H    1.339322841  -1.257120487  -1.244741411
  H    1.114322841   0.125879513  -3.142741411
  H   -0.518677159   0.434879513  -2.537741411
  O    0.634322841  -0.607120487  -1.240741411
  C   -0.466437235   0.489135547   3.323868280
  H   -1.341553006   0.092313524   3.829964783
  H   -1.771931060   1.664519207   1.691252549
  H   -0.132079875   1.403759735   3.807148480
  H    0.332591802  -0.246607316   3.376022247
  S   -0.791905327   0.757945193   1.548974228
