20
charge=0 charge_a=0 charge_b=0 selection_a=1-10 selection_b=11-20 scaling=1.05 benchmark_Eint=0.947 benchmark_unit=kcal/mol group=PS contact=S-O
  C    2.036993965   0.037917158  -2.755313450
  C    1.525993965   0.351917158  -4.132313450
  C    3.506993965  -0.259082842  -2.678313450
  H    1.713993965  -0.493082842  -4.800313450
  H    3.751993965  -1.104082842  -3.329313450
  H    2.072993965   1.200917158  -4.551313450
  H    0.463993965   0.573917158  -4.125313450
  H    3.819993965  -0.485082842  -1.663313450
  H    4.080993965   0.592917158  -3.053313450
  S    1.069993965   0.019917158  -1.447313450
  C   -1.362505309  -0.025362044   1.842975122
  O   -0.644029367  -0.011988137   0.871137965
  C   -2.112539305   1.211080434   2.295112274
  C   -1.559617926  -1.276879910   2.671718537
  H   -1.798691397   1.489815259   3.303786348
  H   -1.285932814  -1.091103127   3.712232086
  H   -3.184592383   1.009905331   2.342427977
  H   -1.921637450   2.034121590   1.613865082
  H   -0.955622375  -2.088039689   2.273418163
  H   -2.611666499  -1.568037607   2.668556994
