13
charge=0 charge_a=0 charge_b=0 selection_a=1-3 selection_b=4-13 scaling=1.05 benchmark_Eint=1.107 benchmark_unit=kcal/mol group=PS contact=S-O
  H   -1.004584200  -0.486313027   1.938960870
  H   -0.430584200   0.925686973   1.990960870
  O   -0.518584200   0.158686973   1.419960870
  C    1.043950303  -0.319449212  -2.858491603
  C    0.129916542  -0.389580927  -4.048226794
  C    2.507775490  -0.419210221  -3.178337761
  H    0.275614502  -1.337352657  -4.573673130
  H    2.712008951  -1.356515344  -3.705214218
  H    0.382500228   0.398538383  -4.762817891
  H   -0.911880839  -0.296012465  -3.759990501
  H    3.120345611  -0.369596079  -2.283035419
  H    2.797346422   0.384981325  -3.860561795
  S    0.488949842  -0.149618848  -1.338817580
