16
charge=0 charge_a=0 charge_b=0 selection_a=1-10 selection_b=11-16 scaling=1.25 benchmark_Eint=0.032 benchmark_unit=kcal/mol group=PS contact=S-O
  C    2.036993965   0.037917158  -2.755313450
  C    1.525993965   0.351917158  -4.132313450
  C    3.506993965  -0.259082842  -2.678313450
  H    1.713993965  -0.493082842  -4.800313450
  H    3.751993965  -1.104082842  -3.329313450
  H    2.072993965   1.200917158  -4.551313450
  H    0.463993965   0.573917158  -4.125313450
  H    3.819993965  -0.485082842  -1.663313450
  H    4.080993965   0.592917158  -3.053313450
  S    1.069993965   0.019917158  -1.447313450
  C   -0.942778093   0.924092438   2.384452729
  H   -0.702782660   0.454138792   3.342633172
  H   -1.660027991  -0.665784515   1.497546951
  H   -1.887292016   1.466137486   2.481913573
  H   -0.159378947   1.639379731   2.146505536
  O   -0.975584831  -0.018159801   1.319612160
