13
charge=0 charge_a=0 charge_b=0 selection_a=1-3 selection_b=4-13 scaling=1.15 benchmark_Eint=0.396 benchmark_unit=kcal/mol group=PS contact=S-O
  H   -1.004584200  -0.486313027   1.938960870
  H   -0.430584200   0.925686973   1.990960870
  O   -0.518584200   0.158686973   1.419960870
  C    1.139889745  -0.348806719  -3.121188100
  C    0.225855984  -0.418938434  -4.310923292
  C    2.603714931  -0.448567729  -3.441034259
  H    0.371553944  -1.366710165  -4.836369628
  H    2.807948392  -1.385872851  -3.967910716
  H    0.478439669   0.369180875  -5.025514389
  H   -0.815941397  -0.325369973  -4.022686998
  H    3.216285052  -0.398953586  -2.545731917
  H    2.893285864   0.355623817  -4.123258293
  S    0.584889284  -0.178976355  -1.601514078
