9
charge=0 charge_a=0 charge_b=0 selection_a=1-3 selection_b=4-9 scaling=1.15 benchmark_Eint=0.800 benchmark_unit=kcal/mol group=PS contact=S-O
  H   -1.004584200  -0.486313027   1.938960870
  H   -0.430584200   0.925686973   1.990960870
  O   -0.518584200   0.158686973   1.419960870
  C    0.568329665  -1.599381759  -3.013027189
  H    1.555273998  -1.969362023  -3.274722601
  H    1.353874228   0.634736410  -2.634991811
  H    0.018456710  -1.321812721  -3.908843667
  H    0.023669879  -2.387125545  -2.497963654
  S    0.672106958  -0.205664999  -1.840329075
