18
charge=0 charge_a=0 charge_b=0 selection_a=1-10 selection_b=11-18 scaling=1.00 benchmark_Eint=2.685 benchmark_unit=kcal/mol group=PS contact=S-P
  C    2.036993965   0.037917158  -2.755313450
  C    1.525993965   0.351917158  -4.132313450
  C    3.506993965  -0.259082842  -2.678313450
  H    1.713993965  -0.493082842  -4.800313450
  H    3.751993965  -1.104082842  -3.329313450
  H    2.072993965   1.200917158  -4.551313450
  H    0.463993965   0.573917158  -4.125313450
  H    3.819993965  -0.485082842  -1.663313450
  H    4.080993965   0.592917158  -3.053313450
  S    1.069993965   0.019917158  -1.447313450
  C   -0.830019534   1.173403481   2.520745477
  C   -2.007759913  -1.099273574   1.467030334
  H   -1.579691594   0.922647575   3.268394645
  H   -2.209957923  -1.915260818   0.784844302
  H   -2.624435289  -1.064642482   2.357098404
  H   -1.019264908   2.180654803   2.146740177
  H    0.155197160   1.186980607   2.990484476
  P   -0.811233758  -0.015100525   1.097304814
