14
charge=0 charge_a=0 charge_b=0 selection_a=1-6 selection_b=7-14 scaling=1.25 benchmark_Eint=0.034 benchmark_unit=kcal/mol group=PS contact=S-P
  C    0.170692492  -0.415619026  -3.272120308
  H   -0.260307508  -1.293619026  -3.744120308
  H    1.495692492  -1.712619026  -1.751120308
  H    1.036692492  -0.071619026  -3.832120308
  H   -0.574307508   0.376380974  -3.258120308
  S    0.595692492  -0.741619026  -1.528120308
  C   -0.295106395   0.584992652   3.781559271
  C   -1.919661191   2.195561642   2.222925818
  H   -0.819351498   1.185649509   4.521994556
  H   -2.381639069   2.622447458   1.341766388
  H   -2.243830198   2.606356416   3.171541181
  H    0.779560423   0.737333351   3.891707089
  H   -0.489228544  -0.471845254   3.973656207
  P   -0.796411077   0.991507557   2.043020446
