7
charge=0 charge_a=0 charge_b=0 selection_a=1-4 selection_b=5-7 scaling=1.15 benchmark_Eint=0.132 benchmark_unit=kcal/mol group=PS contact=S-P
  H    2.629997318   0.717791816  -1.389164127
  H    2.351997318   1.939791816   0.252835873
  H    3.016997318   0.000791816   0.508835873
  P    1.939997318   0.644791816  -0.152164127
  H   -2.348369448  -1.715536666  -0.182606932
  H   -2.854145442  -0.013044233   0.590889132
  S   -1.723451032  -0.572818895   0.135179270
