23
charge=0 charge_a=0 charge_b=0 selection_a=1-13 selection_b=14-23 scaling=1.10 benchmark_Eint=0.449 benchmark_unit=kcal/mol group=PS contact=S-P
  C    2.680204605   0.705092983  -1.879184675
  C    2.396204605   2.294092983   0.447815325
  C    3.257204605  -0.394907017   0.664815325
  H    2.095204605   1.395092983  -2.487184675
  H    2.158204605   2.361092983   1.508815325
  H    3.229204605  -1.417907017   0.289815325
  H    2.630204605  -0.274907017  -2.353184675
  H    3.720204605   1.039092983  -1.869184675
  H    1.800204605   3.043092983  -0.073184675
  H    3.454204605   2.525092983   0.307815325
  H    3.055204605  -0.428907017   1.735815325
  H    4.259204605   0.010092983   0.508815325
  P    1.949204605   0.609092983  -0.179184675
  C   -2.935742835  -0.917369247   0.269874248
  C   -3.921784960  -0.215916735   1.159554697
  C   -3.485728423  -2.098527986  -0.476729990
  H   -4.307806007  -0.912600947   1.908695445
  H   -3.884989957  -2.833647762   0.228989601
  H   -4.785055292   0.115074222   0.575790771
  H   -3.475034601   0.636957810   1.659750785
  H   -2.730102982  -2.570360131  -1.097757058
  H   -4.326526270  -1.786962381  -1.102821720
  S   -1.388988939  -0.434035203   0.127685688
