22
charge=0 charge_a=0 charge_b=0 selection_a=1-13 selection_b=14-22 scaling=1.00 benchmark_Eint=2.681 benchmark_unit=kcal/mol group=PS contact=S-P
  C    2.680204605   0.705092983  -1.879184675
  C    2.396204605   2.294092983   0.447815325
  C    3.257204605  -0.394907017   0.664815325
  H    2.095204605   1.395092983  -2.487184675
  H    2.158204605   2.361092983   1.508815325
  H    3.229204605  -1.417907017   0.289815325
  H    2.630204605  -0.274907017  -2.353184675
  H    3.720204605   1.039092983  -1.869184675
  H    1.800204605   3.043092983  -0.073184675
  H    3.454204605   2.525092983   0.307815325
  H    3.055204605  -0.428907017   1.735815325
  H    4.259204605   0.010092983   0.508815325
  P    1.949204605   0.609092983  -0.179184675
  C   -2.359193468  -1.284993914  -0.892138607
  C   -3.584270180  -1.435379181  -0.308688250
  C   -3.655803212  -0.827189078   0.974391570
  C   -2.484594829  -0.228501466   1.337627122
  H   -2.260191572   0.301699820   2.247659414
  H   -4.537209030  -0.834922390   1.598162345
  H   -2.030692717  -1.642218927  -1.852751197
  H   -4.404601673  -1.960060007  -0.775429371
  S   -1.286489301  -0.402005825   0.118263197
