19
charge=0 charge_a=0 charge_b=0 selection_a=1-9 selection_b=10-19 scaling=1.25 benchmark_Eint=-0.641 benchmark_unit=kcal/mol group=PS contact=S-S
  C    2.710400666  -1.252991357   1.254353618
  C    3.069400666  -2.471991357   1.753353618
  C    2.004400666  -3.412991357   1.713353618
  C    0.860400666  -2.888991357   1.185353618
  H   -0.089599334  -3.373991357   1.037353618
  H    2.085400666  -4.431991357   2.061353618
  H    3.313400666  -0.365991357   1.165353618
  H    4.055400666  -2.690991357   2.135353618
  S    1.073400666  -1.244991357   0.733353618
  C   -2.167349887   2.513816102  -1.480746129
  C   -2.699090701   2.397421363  -2.880585396
  C   -2.598060406   3.747475276  -0.740738366
  H   -2.371225484   3.254390256  -3.475313667
  H   -2.290708207   4.640895073  -1.293175414
  H   -3.791941109   2.431497905  -2.871216580
  H   -2.369984299   1.481449032  -3.360023259
  H   -2.180300343   3.783165089   0.260996513
  H   -3.689324612   3.785383596  -0.679825381
  S   -1.197271103   1.388663360  -0.817982626
