6
charge=0 charge_a=0 charge_b=0 selection_a=1-3 selection_b=4-6 scaling=1.05 benchmark_Eint=1.046 benchmark_unit=kcal/mol group=PS contact=S-S
  H    0.880172729  -2.754189816   0.122632441
  H    0.117172729  -2.395189816  -1.621367559
  S    0.329172729  -1.699189816  -0.494367559
  H   -0.840341342   2.548588299  -0.182451474
  H   -0.077344317   2.189587397   1.561549643
  S   -0.289342829   1.493587848   0.434549084
