16
charge=0 charge_a=0 charge_b=0 selection_a=1-10 selection_b=11-16 scaling=1.15 benchmark_Eint=-0.052 benchmark_unit=kcal/mol group=PS contact=S-S
  C    2.036993965   0.037917158  -2.755313450
  C    1.525993965   0.351917158  -4.132313450
  C    3.506993965  -0.259082842  -2.678313450
  H    1.713993965  -0.493082842  -4.800313450
  H    3.751993965  -1.104082842  -3.329313450
  H    2.072993965   1.200917158  -4.551313450
  H    0.463993965   0.573917158  -4.125313450
  H    3.819993965  -0.485082842  -1.663313450
  H    4.080993965   0.592917158  -3.053313450
  S    1.069993965   0.019917158  -1.447313450
  C   -1.158210116   1.092163044   2.878892375
  H   -0.943105954   0.561111080   3.801466497
  H   -2.045022068  -0.857668214   1.800468698
  H   -2.129111388   1.577553210   2.939217398
  H   -0.395763773   1.852241008   2.725784367
  S   -1.061434013  -0.019757821   1.435734942
