16
charge=0 charge_a=0 charge_b=0 selection_a=1-10 selection_b=11-16 scaling=1.05 benchmark_Eint=0.905 benchmark_unit=kcal/mol group=PS contact=S-S
  C    2.036993965   0.037917158  -2.755313450
  C    1.525993965   0.351917158  -4.132313450
  C    3.506993965  -0.259082842  -2.678313450
  H    1.713993965  -0.493082842  -4.800313450
  H    3.751993965  -1.104082842  -3.329313450
  H    2.072993965   1.200917158  -4.551313450
  H    0.463993965   0.573917158  -4.125313450
  H    3.819993965  -0.485082842  -1.663313450
  H    4.080993965   0.592917158  -3.053313450
  S    1.069993965   0.019917158  -1.447313450
  C   -0.972887162   1.095612696   2.628217686
  H   -0.757782999   0.564560732   3.550791808
  H   -1.859699113  -0.854218562   1.549794008
  H   -1.943788433   1.581002862   2.688542709
  H   -0.210440818   1.855690659   2.475109677
  S   -0.876111058  -0.016308169   1.185060253
