20
charge=0 charge_a=0 charge_b=0 selection_a=1-10 selection_b=11-20 scaling=1.00 benchmark_Eint=2.230 benchmark_unit=kcal/mol group=PS contact=S-S
  C    2.036993965   0.037917158  -2.755313450
  C    1.525993965   0.351917158  -4.132313450
  C    3.506993965  -0.259082842  -2.678313450
  H    1.713993965  -0.493082842  -4.800313450
  H    3.751993965  -1.104082842  -3.329313450
  H    2.072993965   1.200917158  -4.551313450
  H    0.463993965   0.573917158  -4.125313450
  H    3.819993965  -0.485082842  -1.663313450
  H    4.080993965   0.592917158  -3.053313450
  S    1.069993965   0.019917158  -1.447313450
  C   -1.676405999  -0.031205076   2.267568818
  C   -2.739956551   1.003740493   2.499072362
  C   -1.573024770  -1.082148863   3.335214581
  H   -2.551546195   1.526263021   3.440913509
  H   -1.380314801  -0.612142809   4.304651622
  H   -3.715705263   0.522057168   2.606154698
  H   -2.780007874   1.725887536   1.690322376
  H   -0.785794768  -1.798735549   3.120639544
  H   -2.525897768  -1.609561603   3.434581846
  S   -0.709405999  -0.013205076   0.959568817
