20
charge=0 charge_a=0 charge_b=0 selection_a=1-10 selection_b=11-20 scaling=1.25 benchmark_Eint=-0.267 benchmark_unit=kcal/mol group=PS contact=S-S
  C    2.036993965   0.037917158  -2.755313450
  C    1.525993965   0.351917158  -4.132313450
  C    3.506993965  -0.259082842  -2.678313450
  H    1.713993965  -0.493082842  -4.800313450
  H    3.751993965  -1.104082842  -3.329313450
  H    2.072993965   1.200917158  -4.551313450
  H    0.463993965   0.573917158  -4.125313450
  H    3.819993965  -0.485082842  -1.663313450
  H    4.080993965   0.592917158  -3.053313450
  S    1.069993965   0.019917158  -1.447313450
  C   -2.121095490  -0.039482647   2.869072287
  C   -3.184646043   0.995462922   3.100575832
  C   -2.017714262  -1.090426434   3.936718051
  H   -2.996235687   1.517985450   4.042416978
  H   -1.825004293  -0.620420380   4.906155092
  H   -4.160394755   0.513779598   3.207658168
  H   -3.224697366   1.717609965   2.291825846
  H   -1.230484260  -1.807013119   3.722143014
  H   -2.970587260  -1.617839173   4.036085316
  S   -1.154095491  -0.021482647   1.561072287
