7
charge=0 charge_a=0 charge_b=0 selection_a=1-4 selection_b=5-7 scaling=1.15 benchmark_Eint=0.902 benchmark_unit=kcal/mol group=Halogens contact=F-H
  C    0.052610641  -1.106577151  -1.495895895
  C    0.085610641  -1.817577151  -2.456895895
  H    0.022610641  -0.475577151  -0.642895895
  H    0.114610641  -2.448577151  -3.309895895
  C    1.217365536   1.017868722   1.234828708
  F   -0.044176105   0.929170749   1.256073928
  N    2.364955858   1.099155694   1.215058052
