7
charge=0 charge_a=0 charge_b=0 selection_a=1-4 selection_b=5-7 scaling=1.25 benchmark_Eint=0.591 benchmark_unit=kcal/mol group=Halogens contact=F-H
  C    0.052610641  -1.106577151  -1.495895895
  C    0.085610641  -1.817577151  -2.456895895
  H    0.022610641  -0.475577151  -0.642895895
  H    0.114610641  -2.448577151  -3.309895895
  C    1.211557992   1.140020713   1.399956519
  F   -0.049983648   1.051322740   1.421201738
  N    2.359148314   1.221307686   1.380185862
