7
charge=0 charge_a=0 charge_b=0 selection_a=1-4 selection_b=5-7 scaling=1.10 benchmark_Eint=1.189 benchmark_unit=kcal/mol group=Halogens contact=F-H
  C    0.052610641  -1.106577151  -1.495895895
  C    0.085610641  -1.817577151  -2.456895895
  H    0.022610641  -0.475577151  -0.642895895
  H    0.114610641  -2.448577151  -3.309895895
  C    1.220269307   0.956792726   1.152264803
  F   -0.041272334   0.868094753   1.173510022
  N    2.367859629   1.038079699   1.132494146
