7
charge=0 charge_a=0 charge_b=0 selection_a=1-3 selection_b=4-7 scaling=1.15 benchmark_Eint=-0.035 benchmark_unit=kcal/mol group=Halogens contact=F-H
  C   -1.264834377   0.000000000  -1.400000000
  F    0.000000000   0.000000000  -1.400000000
  N   -2.415469611   0.000745701  -1.400000000
  B    0.000000001  -0.000000000   2.147512096
  H   -0.000000000   0.000000000   0.960160000
  H    0.834416191   0.602343649   2.741217200
  H   -0.833123499  -0.602343911   2.741732633
