8
charge=0 charge_a=0 charge_b=0 selection_a=1-5 selection_b=6-8 scaling=1.00 benchmark_Eint=2.104 benchmark_unit=kcal/mol group=Halogens contact=F-H
  C   -1.485547661  -1.164488879   0.027767246
  H   -0.629547661  -0.493488879   0.011767246
  H   -1.452547661  -1.772488879   0.929767246
  H   -2.403547661  -0.582488879   0.016767246
  H   -1.455547661  -1.811488879  -0.846232754
  C    0.243597652   1.654531102  -0.540395676
  F    0.960264787   0.752730925  -0.017948875
  N   -0.408545350   2.475158306  -1.014992867
