7
charge=0 charge_a=0 charge_b=0 selection_a=1-4 selection_b=5-7 scaling=1.00 benchmark_Eint=2.289 benchmark_unit=kcal/mol group=Halogens contact=F-H
  C    0.052610641  -1.106577151  -1.495895895
  C    0.085610641  -1.817577151  -2.456895895
  H    0.022610641  -0.475577151  -0.642895895
  H    0.114610641  -2.448577151  -3.309895895
  C    1.226076850   0.834640735   0.987136992
  F   -0.035464790   0.745942762   1.008382212
  N    2.373667172   0.915927708   0.967366336
