7
charge=0 charge_a=0 charge_b=0 selection_a=1-4 selection_b=5-7 scaling=1.05 benchmark_Eint=1.626 benchmark_unit=kcal/mol group=Halogens contact=F-H
  C    0.052610641  -1.106577151  -1.495895895
  C    0.085610641  -1.817577151  -2.456895895
  H    0.022610641  -0.475577151  -0.642895895
  H    0.114610641  -2.448577151  -3.309895895
  C    1.223173079   0.895716731   1.069700898
  F   -0.038368562   0.807018757   1.090946117
  N    2.370763401   0.977003703   1.049930241
