15
charge=0 charge_a=0 charge_b=0 selection_a=1-3 selection_b=4-15 scaling=1.25 benchmark_Eint=-2.026 benchmark_unit=kcal/mol group=Halogens contact=F-C
  C   -1.264834377   0.000000000  -1.400000000
  F    0.000000000   0.000000000  -1.400000000
  N   -2.415469611   0.000745701  -1.400000000
  C    0.000000000   0.000000000   1.798580000
  C    0.695990796  -1.205318137   1.798580000
  C    2.086729317  -1.204713144   1.798580000
  C    2.781351787  -0.000116780   1.798106714
  C    2.086215653   1.204189871   1.798603148
  C    0.694854871   1.204250189   1.799015643
  H   -1.081855209  -0.000473127   1.798866895
  H    0.154516160  -2.141470451   1.798323666
  H    2.626984635  -2.141719097   1.797563485
  H    3.863206996   0.000356347   1.797819818
  H    2.626835627   2.141353670   1.798363048
  H    0.152872119   2.140279406   1.799001645
