7
charge=0 charge_a=0 charge_b=0 selection_a=1-4 selection_b=5-7 scaling=1.10 benchmark_Eint=-0.572 benchmark_unit=kcal/mol group=Halogens contact=F-C
  C    0.000000000   0.000000000  -1.700000000
  C   -1.195880847   0.000000000  -1.700000000
  H    1.061446885   0.000714097  -1.700000000
  H   -2.257300137   0.000279700  -1.700107731
  C    1.264834135  -0.000781835   1.162850000
  F   -0.000000000  -0.000000000   1.162850000
  N    2.415469610  -0.000747379   1.162850000
