9
charge=0 charge_a=0 charge_b=0 selection_a=1-6 selection_b=7-9 scaling=1.25 benchmark_Eint=-1.191 benchmark_unit=kcal/mol group=Halogens contact=F-C
  C    0.000000000   0.000000000  -1.700000000
  C   -1.324750165   0.000000000  -1.700000000
  H    0.569437181   0.920034400  -1.700000000
  H    0.568432464  -0.920558601  -1.701181686
  H   -1.893182629   0.920558601  -1.698818314
  H   -1.894159417  -0.919202805  -1.700554680
  C    1.264834270  -0.000520943   1.563060000
  F   -0.000000000  -0.000000000   1.563060000
  N    2.415469713  -0.000249150   1.563060000
