11
charge=0 charge_a=0 charge_b=0 selection_a=1-5 selection_b=6-11 scaling=1.00 benchmark_Eint=2.075 benchmark_unit=kcal/mol group=Halogens contact=F-C
  C   -1.390184880   0.000000000  -1.400000000
  F    0.000000000   0.000000000  -1.400000000
  H   -1.739965695   1.031113661  -1.400000000
  H   -1.740592230  -0.515759599  -2.292799935
  H   -1.740294428  -0.515136811  -0.506383544
  C   -0.000000000   0.000000000   1.415730000
  C    1.324750126  -0.000320734   1.415730000
  H   -0.569214416   0.920172239   1.415730000
  H   -0.568655323  -0.920420951   1.416911686
  H    1.893405449   0.920100217   1.414548314
  H    1.893936814  -0.919661371   1.416284680
