6
charge=0 charge_a=0 charge_b=0 selection_a=1-3 selection_b=4-6 scaling=1.05 benchmark_Eint=-0.256 benchmark_unit=kcal/mol group=Halogens contact=F-N
  C   -2.735331436  -0.059932766   0.222949889
  H   -3.797331436  -0.083932766   0.308949889
  N   -1.594331436  -0.034932766   0.129949889
  C    0.954539277   1.025020323   0.692411293
  F    0.914050141   0.020027391  -0.074501896
  N    0.991430730   1.938822149   1.390671446
