12
charge=0 charge_a=0 charge_b=0 selection_a=1-5 selection_b=6-12 scaling=1.05 benchmark_Eint=1.241 benchmark_unit=kcal/mol group=Halogens contact=F-N
  C   -1.390184880   0.000000000  -1.400000000
  F    0.000000000   0.000000000  -1.400000000
  H   -1.739965695   1.031113661  -1.400000000
  H   -1.740592230  -0.515759599  -2.292799935
  H   -1.740294428  -0.515136811  -0.506383544
  N    0.000000000   0.000000000   1.531600000
  C    1.402417455   0.000245795   1.949498578
  H   -0.484392552  -0.812019678   1.889433618
  H    1.899904397   0.878230934   1.537821716
  H    1.899995628  -0.876275129   1.534151697
  H    1.564798887  -0.002265621   3.033991530
  H   -0.484501139   0.811893159   1.889725878
