16
charge=0 charge_a=0 charge_b=0 selection_a=1-11 selection_b=12-16 scaling=1.25 benchmark_Eint=-0.159 benchmark_unit=kcal/mol group=Halogens contact=F-N
  C   -0.175446694  -2.007467188   1.577808032
  C   -0.829446694  -2.993467188   2.306808032
  C   -2.215446694  -3.053467188   2.245808032
  C   -2.885446694  -2.126467188   1.458808032
  C   -2.138446694  -1.179467188   0.767808032
  N   -0.807446694  -1.112467188   0.818808032
  H    0.906553306  -1.933467188   1.603808032
  H   -0.263446694  -3.693467188   2.905808032
  H   -2.760446694  -3.806467188   2.798808032
  H   -3.963446694  -2.133467188   1.379808032
  H   -2.630446694  -0.441467188   0.144808032
  C    0.601529001   2.192324225   0.055240504
  F    0.908175669   1.251247469  -0.920954334
  H    1.385010799   2.180104629   0.811249072
  H    0.544304019   3.174836590  -0.410892260
  H   -0.356632976   1.932403587   0.503414451
