7
charge=0 charge_a=0 charge_b=0 selection_a=1-3 selection_b=4-7 scaling=1.25 benchmark_Eint=-2.636 benchmark_unit=kcal/mol group=Halogens contact=F-N
  C   -1.264834377   0.000000000  -1.400000000
  F    0.000000000   0.000000000  -1.400000000
  N   -2.415469611   0.000745701  -1.400000000
  N    0.000000000  -0.000000000   1.636900000
  H    0.912469551   0.232432801   2.010086697
  H   -0.254566251  -0.905588883   2.009795159
  H   -0.656820940   0.673155862   2.009353271
