6
charge=0 charge_a=0 charge_b=0 selection_a=1-3 selection_b=4-6 scaling=1.15 benchmark_Eint=-1.939 benchmark_unit=kcal/mol group=Halogens contact=F-N
  C   -2.735331436  -0.059932766   0.222949889
  H   -3.797331436  -0.083932766   0.308949889
  N   -1.594331436  -0.034932766   0.129949889
  C    1.193390055   1.030253688   0.672943175
  F    1.152900920   0.025260756  -0.093970013
  N    1.230281508   1.944055514   1.371203328
