6
charge=0 charge_a=0 charge_b=0 selection_a=1-3 selection_b=4-6 scaling=1.25 benchmark_Eint=-2.221 benchmark_unit=kcal/mol group=Halogens contact=F-N
  C   -2.735331436  -0.059932766   0.222949889
  H   -3.797331436  -0.083932766   0.308949889
  N   -1.594331436  -0.034932766   0.129949889
  C    1.432539770   1.035493603   0.653450691
  F    1.392050635   0.030500671  -0.113462497
  N    1.469431224   1.949295429   1.351710845
