13
charge=0 charge_a=0 charge_b=0 selection_a=1-3 selection_b=4-13 scaling=1.00 benchmark_Eint=1.084 benchmark_unit=kcal/mol group=Halogens contact=F-O
  C   -1.264834377   0.000000000  -1.400000000
  F    0.000000000   0.000000000  -1.400000000
  N   -2.415469611   0.000745701  -1.400000000
  C   -0.000000000  -0.000000000   2.066109933
  O   -0.000000000  -0.000000000   0.857452000
  C    0.833435979   0.983864218   2.861826383
  C   -0.831427228  -0.982281435   2.863491867
  H    1.553331769   0.446051519   3.483215595
  H   -0.195108282  -1.561714588   3.535385028
  H    0.199416386   1.559157471   3.539369613
  H    1.360824367   1.655002704   2.191473774
  H   -1.362712575  -1.652980467   2.193169042
  H   -1.547820701  -0.447101436   3.489552375
