15
charge=0 charge_a=0 charge_b=0 selection_a=1-5 selection_b=6-15 scaling=1.25 benchmark_Eint=-0.134 benchmark_unit=kcal/mol group=Halogens contact=F-O
  C   -1.390184880   0.000000000  -1.400000000
  F    0.000000000   0.000000000  -1.400000000
  H   -1.739965695   1.031113661  -1.400000000
  H   -1.740592230  -0.515759599  -2.292799935
  H   -1.740294428  -0.515136811  -0.506383544
  C   -0.000000000  -0.000000000   3.029417933
  O   -0.000000000  -0.000000000   1.820760000
  C    0.833268949   0.984005686   3.825134383
  C   -0.831260466  -0.982422562   3.826799866
  H    1.553256026   0.446315202   4.446523595
  H   -0.194843166  -1.561747686   4.498693028
  H    0.199151704   1.559191301   4.502677613
  H    1.360543398   1.655233690   3.154781774
  H   -1.362431949  -1.653211773   3.156477042
  H   -1.547744780  -0.447364184   4.452860374
