8
charge=0 charge_a=0 charge_b=0 selection_a=1-3 selection_b=4-8 scaling=1.00 benchmark_Eint=1.939 benchmark_unit=kcal/mol group=Halogens contact=F-O
  H   -1.004584200  -0.486313027   1.938960870
  H   -0.430584200   0.925686973   1.990960870
  O   -0.518584200   0.158686973   1.419960870
  C   -0.134950677  -1.405907662  -1.110424668
  F    0.388281732  -0.118814365  -1.063173281
  H   -1.154760121  -1.355248246  -1.488530900
  H    0.482019124  -2.010862112  -1.773194143
  H   -0.127883732  -1.823859533  -0.104562206
