9
charge=0 charge_a=0 charge_b=0 selection_a=1-6 selection_b=7-9 scaling=1.25 benchmark_Eint=-2.737 benchmark_unit=kcal/mol group=Halogens contact=F-O
  C    0.278322841  -0.303120487  -2.583741411
  H   -0.093677159  -1.181120487  -3.119741411
  H    1.339322841  -1.257120487  -1.244741411
  H    1.114322841   0.125879513  -3.142741411
  H   -0.518677159   0.434879513  -2.537741411
  O    0.634322841  -0.607120487  -1.240741411
  C    0.199711611  -0.151608901   1.837016808
  F   -0.565722495   0.541462004   1.106558492
  N    0.896541888  -0.781555860   2.501513905
