8
charge=0 charge_a=0 charge_b=0 selection_a=1-3 selection_b=4-8 scaling=1.05 benchmark_Eint=1.144 benchmark_unit=kcal/mol group=Halogens contact=F-O
  H   -1.004584200  -0.486313027   1.938960870
  H   -0.430584200   0.925686973   1.990960870
  O   -0.518584200   0.158686973   1.419960870
  C   -0.089622324  -1.419778156  -1.234540458
  F    0.433610085  -0.132684860  -1.187289071
  H   -1.109431767  -1.369118740  -1.612646690
  H    0.527347477  -2.024732606  -1.897309933
  H   -0.082555379  -1.837730027  -0.228677996
