14
charge=0 charge_a=0 charge_b=0 selection_a=1-5 selection_b=6-14 scaling=1.25 benchmark_Eint=-0.455 benchmark_unit=kcal/mol group=Halogens contact=F-O
  C   -1.390184880   0.000000000  -1.400000000
  F    0.000000000   0.000000000  -1.400000000
  H   -1.739965695   1.031113661  -1.400000000
  H   -1.740592230  -0.515759599  -2.292799935
  H   -1.740294428  -0.515136811  -0.506383544
  C   -0.248288500  -1.064606002   2.602900980
  C   -0.161779505  -0.697575207   3.903717873
  C    0.163955690   0.697723894   3.903683462
  C    0.248227438   1.064344181   2.602701588
  H    0.465375433   1.993488507   2.108321603
  H    0.313273733   1.333230838   4.758349505
  H   -0.465693447  -1.992878352   2.108344074
  H   -0.309734465  -1.333728034   4.757949640
  O    0.000000000  -0.000000000   1.792144000
