7
charge=0 charge_a=0 charge_b=0 selection_a=1-4 selection_b=5-7 scaling=1.05 benchmark_Eint=0.445 benchmark_unit=kcal/mol group=Halogens contact=F-P
  H    2.629997318   0.717791816  -1.389164127
  H    2.351997318   1.939791816   0.252835873
  H    3.016997318   0.000791816   0.508835873
  P    1.939997318   0.644791816  -0.152164127
  C   -1.208410538   0.819629088   0.574157504
  F   -0.878568005  -0.292007341   0.068910680
  N   -1.508614645   1.831165741   1.033105314
