7
charge=0 charge_a=0 charge_b=0 selection_a=1-4 selection_b=5-7 scaling=1.00 benchmark_Eint=2.250 benchmark_unit=kcal/mol group=Halogens contact=F-P
  H    2.629997318   0.717791816  -1.389164127
  H    2.351997318   1.939791816   0.252835873
  H    3.016997318   0.000791816   0.508835873
  P    1.939997318   0.644791816  -0.152164127
  C   -1.074224236   0.864228237   0.563632571
  F   -0.744381702  -0.247408192   0.058385747
  N   -1.374428343   1.875764890   1.022580381
