14
charge=0 charge_a=0 charge_b=0 selection_a=1-9 selection_b=10-14 scaling=1.10 benchmark_Eint=-0.002 benchmark_unit=kcal/mol group=Halogens contact=F-S
  C    2.710400666  -1.252991357   1.254353618
  C    3.069400666  -2.471991357   1.753353618
  C    2.004400666  -3.412991357   1.713353618
  C    0.860400666  -2.888991357   1.185353618
  H   -0.089599334  -3.373991357   1.037353618
  H    2.085400666  -4.431991357   2.061353618
  H    3.313400666  -0.365991357   1.165353618
  H    4.055400666  -2.690991357   2.135353618
  S    1.073400666  -1.244991357   0.733353618
  C    0.235050727   1.284852713  -1.403482655
  F   -0.787351315   0.913214994  -0.537923027
  H    0.160555750   0.686560863  -2.310146519
  H    0.126283434   2.342078046  -1.640820540
  H    1.191164351   1.105984498  -0.913231802
