6
charge=0 charge_a=0 charge_b=0 selection_a=1-3 selection_b=4-6 scaling=1.10 benchmark_Eint=-0.571 benchmark_unit=kcal/mol group=Halogens contact=F-S
  H    0.880172729  -2.754189816   0.122632441
  H    0.117172729  -2.395189816  -1.621367559
  S    0.329172729  -1.699189816  -0.494367559
  C    0.282319450   0.878641661   1.462654434
  F   -0.215703232   1.113460207   0.323953568
  N    0.736048508   0.665227781   2.498292621
