9
charge=0 charge_a=0 charge_b=0 selection_a=1-6 selection_b=7-9 scaling=1.10 benchmark_Eint=-0.890 benchmark_unit=kcal/mol group=Halogens contact=F-S
  C    0.170692492  -0.415619026  -3.272120308
  H   -0.260307508  -1.293619026  -3.744120308
  H    1.495692492  -1.712619026  -1.751120308
  H    1.036692492  -0.071619026  -3.832120308
  H   -0.574307508   0.376380974  -3.258120308
  S    0.595692492  -0.741619026  -1.528120308
  C    0.377032179  -0.282698129   1.649803053
  F   -0.383678915   0.477668574   0.984245311
  N    1.069602567  -0.973902374   2.255232609
