7
charge=0 charge_a=0 charge_b=0 selection_a=1-3 selection_b=4-7 scaling=1.25 benchmark_Eint=-0.392 benchmark_unit=kcal/mol group=Halogens contact=Cl-H
  C   -1.631270977   0.000000000  -1.780000000
 Cl    0.000000000   0.000000000  -1.780000000
  N   -2.783300300   0.000661594  -1.780000000
  B    0.000000001  -0.000000000   2.397056096
  H   -0.000000000   0.000000000   1.209704000
  H    0.834384414   0.602387667   2.990761200
  H   -0.833091722  -0.602387861   2.991276633
