5
charge=0 charge_a=0 charge_b=0 selection_a=1-2 selection_b=3-5 scaling=1.15 benchmark_Eint=0.303 benchmark_unit=kcal/mol group=Halogens contact=Cl-H
  H    0.341976244  -0.556655337   0.461721869
  H    0.658976244  -1.072655337   0.889721869
  C   -1.547154191   1.969846568   0.207784796
 Cl   -0.817364260   1.330473054  -1.103570674
  N   -2.062023634   2.421780414   1.133979837
