5
charge=0 charge_a=0 charge_b=0 selection_a=1-2 selection_b=3-5 scaling=1.00 benchmark_Eint=2.937 benchmark_unit=kcal/mol group=Halogens contact=Cl-H
  F    0.655496934  -0.274524357   1.568710612
  H    0.304496934  -0.127524357   0.728710612
  C   -1.926861280  -0.316430724  -0.600208184
 Cl   -0.468044521   0.196018645  -1.120106547
  N   -2.957256413  -0.677711376  -0.232874332
