7
charge=0 charge_a=0 charge_b=0 selection_a=1-5 selection_b=6-7 scaling=1.15 benchmark_Eint=0.036 benchmark_unit=kcal/mol group=Halogens contact=Cl-H
  C   -1.795495753   0.000000000  -1.780000000
 Cl    0.000000000   0.000000000  -1.780000000
  H   -2.135682022   1.030042379  -1.780000000
  H   -2.136211680  -0.513776802  -2.671221664
  H   -2.136028444  -0.513679394  -0.888486138
  H   -0.000000000  -0.000000000   0.826316000
  H    0.000000000  -0.000000000   1.567887979
