8
charge=0 charge_a=0 charge_b=0 selection_a=1-5 selection_b=6-8 scaling=1.25 benchmark_Eint=-0.316 benchmark_unit=kcal/mol group=Halogens contact=Cl-H
  C   -1.485547661  -1.164488879   0.027767246
  H   -0.629547661  -0.493488879   0.011767246
  H   -1.452547661  -1.772488879   0.929767246
  H   -2.403547661  -0.582488879   0.016767246
  H   -1.455547661  -1.811488879  -0.846232754
  C    0.717424508   2.450014416  -0.704413807
 Cl    1.641739113   1.286924001  -0.030686712
  N    0.064497324   3.271627771  -1.179608066
