10
charge=0 charge_a=0 charge_b=0 selection_a=1-5 selection_b=6-10 scaling=1.15 benchmark_Eint=-0.487 benchmark_unit=kcal/mol group=Halogens contact=Cl-C
  C   -1.795495753   0.000000000  -1.780000000
 Cl    0.000000000   0.000000000  -1.780000000
  H   -2.135682022   1.030042379  -1.780000000
  H   -2.136211680  -0.513776802  -2.671221664
  H   -2.136028444  -0.513679394  -0.888486138
  C    0.000715987  -0.000000226   1.670807564
  H    0.001174120  -0.000000370   2.758572607
  H   -0.823885583   0.611017882   1.308804632
  H    0.940419023   0.407802181   1.307180830
  H   -0.117249427  -1.018819838   1.308211702
