15
charge=0 charge_a=0 charge_b=0 selection_a=1-3 selection_b=4-15 scaling=1.10 benchmark_Eint=-1.242 benchmark_unit=kcal/mol group=Halogens contact=Cl-C
  C   -1.631270977   0.000000000  -1.780000000
 Cl    0.000000000   0.000000000  -1.780000000
  N   -2.783300300   0.000661594  -1.780000000
  C    0.000000000   0.000000000   1.360004000
  C    0.696054379  -1.205281420   1.360004000
  C    2.086792867  -1.204603060   1.360004000
  C    2.781351789   0.000029946   1.359530714
  C    2.086152125   1.204299925   1.360027148
  C    0.694791341   1.204286844   1.360439643
  H   -1.081855183  -0.000530199   1.360290895
  H    0.154629130  -2.141462296   1.359747666
  H    2.627097614  -2.141580512   1.358987485
  H    3.863206972   0.000560144   1.359243818
  H    2.626722659   2.141492242   1.359787048
  H    0.152759211   2.140287468   1.360425645
