6
charge=0 charge_a=0 charge_b=0 selection_a=1-3 selection_b=4-6 scaling=1.00 benchmark_Eint=1.822 benchmark_unit=kcal/mol group=Halogens contact=Cl-N
  C   -2.735331436  -0.059932766   0.222949889
  H   -3.797331436  -0.083932766   0.308949889
  N   -1.594331436  -0.034932766   0.129949889
  C    1.241567338   1.322157542   0.892224369
 Cl    1.189341358   0.026059188  -0.096940181
  N    1.278501603   2.237081191   1.591311326
