6
charge=0 charge_a=0 charge_b=0 selection_a=1-3 selection_b=4-6 scaling=1.10 benchmark_Eint=-0.803 benchmark_unit=kcal/mol group=Halogens contact=Cl-N
  C   -2.735331436  -0.059932766   0.222949889
  H   -3.797331436  -0.083932766   0.308949889
  N   -1.594331436  -0.034932766   0.129949889
  C    1.519766217   1.328253048   0.869549088
 Cl    1.467540236   0.032154694  -0.119615462
  N    1.556700481   2.243176697   1.568636045
