6
charge=0 charge_a=0 charge_b=0 selection_a=1-3 selection_b=4-6 scaling=1.05 benchmark_Eint=0.082 benchmark_unit=kcal/mol group=Halogens contact=Cl-O
  H   -1.004584200  -0.486313027   1.938960870
  H   -0.430584200   0.925686973   1.990960870
  O   -0.518584200   0.158686973   1.419960870
  C   -0.171683317  -1.645660586  -1.265978659
 Cl    0.442123736  -0.135290040  -1.210600718
  N   -0.605733450  -2.712067896  -1.305322415
