8
charge=0 charge_a=0 charge_b=0 selection_a=1-3 selection_b=4-8 scaling=1.10 benchmark_Eint=0.854 benchmark_unit=kcal/mol group=Halogens contact=Cl-O
  H   -1.004584200  -0.486313027   1.938960870
  H   -0.430584200   0.925686973   1.990960870
  O   -0.518584200   0.158686973   1.419960870
  C   -0.063664678  -1.849706142  -1.735719399
 Cl    0.611680299  -0.187174417  -1.674871872
  H   -1.078966895  -1.790856973  -2.113094787
  H    0.554843848  -2.444703527  -2.397350199
  H   -0.053393827  -2.258382123  -0.731974186
