13
charge=0 charge_a=0 charge_b=0 selection_a=1-5 selection_b=6-13 scaling=1.25 benchmark_Eint=-0.266 benchmark_unit=kcal/mol group=Halogens contact=Cl-P
  C   -1.795495753   0.000000000  -1.780000000
 Cl    0.000000000   0.000000000  -1.780000000
  H   -2.135682022   1.030042379  -1.780000000
  H   -2.136211680  -0.513776802  -2.671221664
  H   -2.136028444  -0.513679394  -0.888486138
  C    1.460702691   0.000493646   3.506995146
  C   -1.304719880  -0.000440932   3.384986405
  H    1.173929931  -0.005448210   4.556562713
  H   -2.302861752  -0.000510304   2.965689615
  H   -1.247475901  -0.001247495   4.466851220
  H    2.073875842   0.880560531   3.307621214
  H    2.079908158  -0.874016741   3.298891389
  P   -0.000000000   0.000000000   2.364443000
