9
charge=0 charge_a=0 charge_b=0 selection_a=1-4 selection_b=5-9 scaling=1.10 benchmark_Eint=0.450 benchmark_unit=kcal/mol group=Halogens contact=Cl-P
  H    2.629997318   0.717791816  -1.389164127
  H    2.351997318   1.939791816   0.252835873
  H    3.016997318   0.000791816   0.508835873
  P    1.939997318   0.644791816  -0.152164127
  C   -2.032704487   1.057957271   0.840121060
 Cl   -1.564515095  -0.519993775   0.122713094
  H   -2.318053623   1.726468641   0.034899091
  H   -2.866863739   0.892748507   1.511846007
  H   -1.179760341   1.453350847   1.379357746
