11
charge=0 charge_a=0 charge_b=0 selection_a=1-3 selection_b=4-11 scaling=1.00 benchmark_Eint=2.400 benchmark_unit=kcal/mol group=Halogens contact=Cl-P
  C   -1.631270977   0.000000000  -1.780000000
 Cl    0.000000000   0.000000000  -1.780000000
  N   -2.783300300   0.000661594  -1.780000000
  C    1.460702589   0.000735232   2.552176146
  C   -1.304719789  -0.000656720   2.430167405
  H    1.173930816  -0.005254053   3.601743713
  H   -2.302861636  -0.000891176   2.010870615
  H   -1.247475678  -0.001453816   3.512032220
  H    2.073730177   0.880903519   2.352802214
  H    2.080052684  -0.873672731   2.344072389
  P   -0.000000000   0.000000000   1.409624000
