8
charge=0 charge_a=0 charge_b=0 selection_a=1-5 selection_b=6-8 scaling=1.00 benchmark_Eint=1.684 benchmark_unit=kcal/mol group=Halogens contact=Cl-F
  C   -1.390184880   0.000000000  -1.400000000
  F    0.000000000   0.000000000  -1.400000000
  H   -1.739965695   1.031113661  -1.400000000
  H   -1.740592230  -0.515759599  -2.292799935
  H   -1.740294428  -0.515136811  -0.506383544
  C    1.631270950  -0.000298079   1.380592000
 Cl   -0.000000000   0.000000000   1.380592000
  N    2.783300374   0.000153008   1.380592000
