6
charge=0 charge_a=0 charge_b=0 selection_a=1-3 selection_b=4-6 scaling=1.10 benchmark_Eint=-0.304 benchmark_unit=kcal/mol group=Halogens contact=Cl-Cl
  C   -1.631270977   0.000000000  -1.780000000
 Cl    0.000000000   0.000000000  -1.780000000
  N   -2.783300300   0.000661594  -1.780000000
  C    1.631270904  -0.000488944   1.564620000
 Cl    0.000000000   0.000000000   1.564620000
  N    2.783300373  -0.000172650   1.564620000
