7
charge=0 charge_a=0 charge_b=0 selection_a=1-3 selection_b=4-7 scaling=1.05 benchmark_Eint=1.145 benchmark_unit=kcal/mol group=Halogens contact=Br-H
  C   -1.793468149  -0.000000000  -1.900000000
 Br    0.000000000   0.000000000  -1.900000000
  N   -2.945497529   0.000553783  -1.900000000
  B    0.000000001  -0.000000000   1.925252096
  H   -0.000000000   0.000000000   0.737900000
  H    0.834364529   0.602415208   2.518957200
  H   -0.833071837  -0.602415360   2.519472633
