5
charge=0 charge_a=0 charge_b=0 selection_a=1-2 selection_b=3-5 scaling=1.25 benchmark_Eint=-0.093 benchmark_unit=kcal/mol group=Halogens contact=Br-H
  H    0.341976244  -0.556655337   0.461721869
  H    0.658976244  -1.072655337   0.889721869
  C   -1.782085316   2.297827472   0.118895751
 Br   -0.979779038   1.594845373  -1.322856241
  N   -2.297009522   2.749719390   1.045080806
