7
charge=0 charge_a=0 charge_b=0 selection_a=1-4 selection_b=5-7 scaling=1.15 benchmark_Eint=-0.783 benchmark_unit=kcal/mol group=Halogens contact=Br-C
  C    0.000000000   0.000000000  -1.700000000
  C   -1.195880847   0.000000000  -1.700000000
  H    1.061446885   0.000714097  -1.700000000
  H   -2.257300137   0.000279700  -1.700107731
  C    1.793467895  -0.000954789   1.850680000
 Br   -0.000000000   0.000000000   1.850680000
  N    2.945497406  -0.001014313   1.850680000
