7
charge=0 charge_a=0 charge_b=0 selection_a=1-3 selection_b=4-7 scaling=1.25 benchmark_Eint=-1.432 benchmark_unit=kcal/mol group=Halogens contact=Br-N
  C   -1.793468149  -0.000000000  -1.900000000
 Br    0.000000000   0.000000000  -1.900000000
  N   -2.945497529   0.000553783  -1.900000000
  N    0.000000000   0.000000000   1.788300000
  H    0.912449614   0.232511055   2.161486697
  H   -0.254488584  -0.905610712   2.161195159
  H   -0.656878668   0.673099530   2.160753271
