13
charge=0 charge_a=0 charge_b=0 selection_a=1-3 selection_b=4-13 scaling=1.25 benchmark_Eint=-1.905 benchmark_unit=kcal/mol group=Halogens contact=Br-O
  C   -1.793468149  -0.000000000  -1.900000000
 Br    0.000000000   0.000000000  -1.900000000
  N   -2.945497529   0.000553783  -1.900000000
  C   -0.000000000  -0.000000000   2.708821933
  O    0.000000000  -0.000000000   1.500164000
  C    0.833351598   0.983935691   3.504538383
  C   -0.831342982  -0.982352737   3.506203866
  H    1.553293509   0.446184734   4.125927595
  H   -0.194974345  -1.561731315   4.178097028
  H    0.199282669   1.559174568   4.182081613
  H    1.360682425   1.655119405   2.834185774
  H   -1.362570807  -1.653097329   2.835881042
  H   -1.547782351  -0.447234179   4.132264374
