8
charge=0 charge_a=0 charge_b=0 selection_a=1-3 selection_b=4-8 scaling=1.05 benchmark_Eint=1.314 benchmark_unit=kcal/mol group=Halogens contact=Br-O
  H   -1.004584200  -0.486313027   1.938960870
  H   -0.430584200   0.925686973   1.990960870
  O   -0.518584200   0.158686973   1.419960870
  C   -0.134828493  -1.998170875  -1.716652092
 Br    0.602607805  -0.184398230  -1.650030030
  H   -1.147409419  -1.927357523  -2.094370688
  H    0.490678687  -2.582259507  -2.378890901
  H   -0.118522995  -2.396206746  -0.709158382
