8
charge=0 charge_a=0 charge_b=0 selection_a=1-3 selection_b=4-8 scaling=1.00 benchmark_Eint=2.075 benchmark_unit=kcal/mol group=Halogens contact=Br-O
  H   -1.004584200  -0.486313027   1.938960870
  H   -0.430584200   0.925686973   1.990960870
  O   -0.518584200   0.158686973   1.419960870
  C   -0.188151913  -1.981853887  -1.570644616
 Br    0.549284385  -0.168081242  -1.504022553
  H   -1.200732839  -1.911040535  -1.948363212
  H    0.437355266  -2.565942519  -2.232883424
  H   -0.171846415  -2.379889758  -0.563150906
