15
charge=0 charge_a=0 charge_b=0 selection_a=1-5 selection_b=6-15 scaling=1.05 benchmark_Eint=0.996 benchmark_unit=kcal/mol group=Halogens contact=Br-O
  C   -1.959087032  -0.000000000  -1.900000000
 Br    0.000000000   0.000000000  -1.900000000
  H   -2.287525223   1.032053465  -1.900000000
  H   -2.286919328  -0.515739411  -2.793038547
  H   -2.287199561  -0.516456466  -1.005932392
  C   -0.000000000  -0.000000000   2.485837933
  O    0.000000000  -0.000000000   1.277180000
  C    0.833220725   0.984046520   3.281554383
  C   -0.831212319  -0.982463299   3.283219866
  H    1.553234152   0.446391322   3.902943595
  H   -0.194766629  -1.561757233   3.955113028
  H    0.199075293   1.559201059   3.959097613
  H    1.360462278   1.655300364   2.611201774
  H   -1.362350929  -1.653278540   2.612897042
  H   -1.547722854  -0.447440034   3.909280374
