14
charge=0 charge_a=0 charge_b=0 selection_a=1-5 selection_b=6-14 scaling=1.25 benchmark_Eint=-0.434 benchmark_unit=kcal/mol group=Halogens contact=Br-O
  C   -1.959087032  -0.000000000  -1.900000000
 Br    0.000000000   0.000000000  -1.900000000
  H   -2.287525223   1.032053465  -1.900000000
  H   -2.286919328  -0.515739411  -2.793038547
  H   -2.287199561  -0.516456466  -1.005932392
  C   -0.248236326  -1.064618169   2.581442980
  C   -0.161745319  -0.697583135   3.882259873
  C    0.163921496   0.697731928   3.882225462
  C    0.248175277   1.064356345   2.581243588
  H    0.465277738   1.993511312   2.086863603
  H    0.313208395   1.333246189   4.736891505
  H   -0.465595781  -1.992901172   2.086886074
  H   -0.309669103  -1.333743212   4.736491640
  O   -0.000000000   0.000000000   1.770686000
