6
charge=0 charge_a=0 charge_b=0 selection_a=1-3 selection_b=4-6 scaling=1.05 benchmark_Eint=0.147 benchmark_unit=kcal/mol group=Halogens contact=Br-O
  H   -1.004584200  -0.486313027   1.938960870
  H   -0.430584200   0.925686973   1.990960870
  O   -0.518584200   0.158686973   1.419960870
  C   -0.187795671  -1.809575806  -1.394638939
 Br    0.487093174  -0.149050707  -1.333733746
  N   -0.621785706  -2.876008489  -1.433957910
