7
charge=0 charge_a=0 charge_b=0 selection_a=1-4 selection_b=5-7 scaling=1.25 benchmark_Eint=-0.929 benchmark_unit=kcal/mol group=Halogens contact=Br-P
  H    2.629997318   0.717791816  -1.389164127
  H    2.351997318   1.939791816   0.252835873
  H    3.016997318   0.000791816   0.508835873
  P    1.939997318   0.644791816  -0.152164127
  C   -2.500150227   0.900786093   0.875686136
 Br   -2.032421629  -0.675510642   0.159413449
  N   -2.800700111   1.913514588   1.335275912
