11
charge=0 charge_a=0 charge_b=0 selection_a=1-3 selection_b=4-11 scaling=1.00 benchmark_Eint=2.364 benchmark_unit=kcal/mol group=Halogens contact=Br-P
  C   -1.793468149  -0.000000000  -1.900000000
 Br    0.000000000   0.000000000  -1.900000000
  N   -2.945497529   0.000553783  -1.900000000
  C    1.460702564   0.000783448   2.561342146
  C   -1.304719766  -0.000699787   2.439333405
  H    1.173930989  -0.005215303   3.610909713
  H   -2.302861605  -0.000967191   2.020036615
  H   -1.247475629  -0.001494993   3.521198220
  H    2.073701099   0.880971969   2.361968214
  H    2.080081522  -0.873604071   2.353238389
  P   -0.000000000   0.000000000   1.418790000
