6
charge=0 charge_a=0 charge_b=0 selection_a=1-3 selection_b=4-6 scaling=1.15 benchmark_Eint=-0.734 benchmark_unit=kcal/mol group=Halogens contact=Br-S
  H    0.880172729  -2.754189816   0.122632441
  H    0.117172729  -2.395189816  -1.621367559
  S    0.329172729  -1.699189816  -0.494367559
  C    0.362366728   1.442508497   2.131113739
 Br   -0.343941612   1.775426799   0.516548184
  N    0.816560820   1.228810401   3.168038447
