6
charge=0 charge_a=0 charge_b=0 selection_a=1-3 selection_b=4-6 scaling=1.25 benchmark_Eint=-0.897 benchmark_unit=kcal/mol group=Halogens contact=Br-S
  H    0.880172729  -2.754189816   0.122632441
  H    0.117172729  -2.395189816  -1.621367559
  S    0.329172729  -1.699189816  -0.494367559
  C    0.303837988   1.744633886   2.219015038
 Br   -0.402470352   2.077552188   0.604449482
  N    0.758032080   1.530935790   3.255939746
