6
charge=0 charge_a=0 charge_b=0 selection_a=1-3 selection_b=4-6 scaling=1.00 benchmark_Eint=2.135 benchmark_unit=kcal/mol group=Halogens contact=Br-Cl
  C   -1.631270977   0.000000000  -1.780000000
 Cl    0.000000000   0.000000000  -1.780000000
  N   -2.783300300   0.000661594  -1.780000000
  C    1.793468085  -0.000478360   1.373024000
 Br    0.000000000   0.000000000   1.373024000
  N    2.945497572  -0.000231850   1.373024000
