10
charge=0 charge_a=0 charge_b=0 selection_a=1-5 selection_b=6-10 scaling=1.05 benchmark_Eint=0.373 benchmark_unit=kcal/mol group=Halogens contact=Br-Br
  C   -1.959087032  -0.000000000  -1.900000000
 Br    0.000000000   0.000000000  -1.900000000
  H   -2.287525223   1.032053465  -1.900000000
  H   -2.286919328  -0.515739411  -2.793038547
  H   -2.287199561  -0.516456466  -1.005932392
  C    1.959087031   0.000063259   1.603600000
 Br    0.000000000   0.000000000   1.603600000
  H    2.287491896   1.032127329   1.603600000
  H    2.286935980  -0.515665565   2.496638547
  H    2.287216236  -0.516382611   0.709532392
