5
charge=0 charge_a=0 charge_b=0 selection_a=1-2 selection_b=3-5 scaling=1.10 benchmark_Eint=0.757 benchmark_unit=kcal/mol group=Halogens contact=I-H
  H    0.341976244  -0.556655337   0.461721869
  H    0.658976244  -1.072655337   0.889721869
  C   -1.788248311   2.239938443   0.394445534
  I   -0.895704178   1.457991659  -1.209341919
  N   -2.303634853   2.692500289   1.321780689
