7
charge=0 charge_a=0 charge_b=0 selection_a=1-3 selection_b=4-7 scaling=1.15 benchmark_Eint=0.049 benchmark_unit=kcal/mol group=Halogens contact=I-H
  C   -1.995046365   0.000000000  -2.100000000
  I    0.000000000   0.000000000  -2.100000000
  N   -3.148469684   0.000804703  -2.100000000
  B    0.000000001  -0.000000000   2.163962096
  H   -0.000000000   0.000000000   0.976610000
  H    0.834388380   0.602382173   2.757667200
  H   -0.833095688  -0.602382376   2.758182633
