8
charge=0 charge_a=0 charge_b=0 selection_a=1-5 selection_b=6-8 scaling=1.25 benchmark_Eint=-0.356 benchmark_unit=kcal/mol group=Halogens contact=I-H
  C   -1.485547661  -1.164488879   0.027767246
  H   -0.629547661  -0.493488879   0.011767246
  H   -1.452547661  -1.772488879   0.929767246
  H   -2.403547661  -0.582488879   0.016767246
  H   -1.455547661  -1.811488879  -0.846232754
  C    0.773844710   2.915180264  -0.859575014
  I    1.904279374   1.492723668  -0.035594007
  N    0.120094550   3.737832711  -1.335221606
