5
charge=0 charge_a=0 charge_b=0 selection_a=1-2 selection_b=3-5 scaling=1.00 benchmark_Eint=2.589 benchmark_unit=kcal/mol group=Halogens contact=I-H
  H    0.341976244  -0.556655337   0.461721869
  H    0.658976244  -1.072655337   0.889721869
  C   -1.675810797   2.056917126   0.546253913
  I   -0.783266664   1.274970342  -1.057533540
  N   -2.191197338   2.509478972   1.473589068
