9
charge=0 charge_a=0 charge_b=0 selection_a=1-5 selection_b=6-9 scaling=1.00 benchmark_Eint=2.492 benchmark_unit=kcal/mol group=Halogens contact=I-H
  C   -2.155722849   0.000000000  -2.100000000
  I    0.000000000   0.000000000  -2.100000000
  H   -2.479116925   1.033491302  -2.100000000
  H   -2.479940315  -0.515857276  -2.995032572
  H   -2.479884185  -0.516346732  -1.206314104
  B    0.000000001  -0.000000000   1.791312096
  H   -0.000000000   0.000000000   0.603960000
  H    0.834374957   0.602400765   2.385017200
  H   -0.833082265  -0.602400939   2.385532633
