7
charge=0 charge_a=0 charge_b=0 selection_a=1-4 selection_b=5-7 scaling=1.25 benchmark_Eint=-0.161 benchmark_unit=kcal/mol group=Halogens contact=I-H
  C    0.052610641  -1.106577151  -1.495895895
  C    0.085610641  -1.817577151  -2.456895895
  H    0.022610641  -0.475577151  -0.642895895
  H    0.114610641  -2.448577151  -3.309895895
  C    1.923436563   1.536802314   1.854692301
  I   -0.066409996   1.396823596   1.888257570
  N    3.073800226   1.618374723   1.834808033
