10
charge=0 charge_a=0 charge_b=0 selection_a=1-5 selection_b=6-10 scaling=1.25 benchmark_Eint=-0.602 benchmark_unit=kcal/mol group=Halogens contact=I-C
  C   -2.155722849   0.000000000  -2.100000000
  I    0.000000000   0.000000000  -2.100000000
  H   -2.479116925   1.033491302  -2.100000000
  H   -2.479940315  -0.515857276  -2.995032572
  H   -2.479884185  -0.516346732  -1.206314104
  C    0.000715987  -0.000000096   1.993171951
  H    0.001174120  -0.000000158   3.080936995
  H   -0.823996218   0.610868675   1.631169020
  H    0.940345159   0.407972474   1.629545218
  H   -0.117064928  -1.018841054   1.630576089
