11
charge=0 charge_a=0 charge_b=0 selection_a=1-5 selection_b=6-11 scaling=1.10 benchmark_Eint=0.443 benchmark_unit=kcal/mol group=Halogens contact=I-C
  C   -2.155722849   0.000000000  -2.100000000
  I    0.000000000   0.000000000  -2.100000000
  H   -2.479116925   1.033491302  -2.100000000
  H   -2.479940315  -0.515857276  -2.995032572
  H   -2.479884185  -0.516346732  -1.206314104
  C   -0.000000000  -0.000000000   1.641860000
  C    1.324750087  -0.000454939   1.641860000
  H   -0.569121194   0.920229899   1.641860000
  H   -0.568748564  -0.920363339   1.643041686
  H    1.893498651   0.919908400   1.640678314
  H    1.893843637  -0.919853233   1.642414680
