15
charge=0 charge_a=0 charge_b=0 selection_a=1-3 selection_b=4-15 scaling=1.25 benchmark_Eint=-2.377 benchmark_unit=kcal/mol group=Halogens contact=I-C
  C   -1.995046365   0.000000000  -2.100000000
  I    0.000000000   0.000000000  -2.100000000
  N   -3.148469684   0.000804703  -2.100000000
  C   -0.000000000  -0.000000000   1.772580000
  C    0.696046444  -1.205286002   1.772580000
  C    2.086784936  -1.204616799   1.772580000
  C    2.781351789   0.000011633   1.772106714
  C    2.086160054   1.204286189   1.772603148
  C    0.694799271   1.204282269   1.773015643
  H   -1.081855186  -0.000523076   1.772866895
  H    0.154615031  -2.141463314   1.772323666
  H    2.627083514  -2.141597809   1.771563485
  H    3.863206976   0.000534709   1.771819818
  H    2.626736759   2.141474948   1.772363048
  H    0.152773303   2.140286462   1.773001645
