7
charge=0 charge_a=0 charge_b=0 selection_a=1-4 selection_b=5-7 scaling=1.10 benchmark_Eint=-0.208 benchmark_unit=kcal/mol group=Halogens contact=I-C
  C    0.000000000   0.000000000  -1.700000000
  C   -1.195880847   0.000000000  -1.700000000
  H    1.061446885   0.000714097  -1.700000000
  H   -2.257300137   0.000279700  -1.700107731
  C    1.995046039  -0.001141093   1.886820000
  I   -0.000000000   0.000000000   1.886820000
  N    3.148469629  -0.000996106   1.886820000
