17
charge=0 charge_a=0 charge_b=0 selection_a=1-5 selection_b=6-17 scaling=1.15 benchmark_Eint=-0.710 benchmark_unit=kcal/mol group=Halogens contact=I-C
  C   -2.155722849   0.000000000  -2.100000000
  I    0.000000000   0.000000000  -2.100000000
  H   -2.479116925   1.033491302  -2.100000000
  H   -2.479940315  -0.515857276  -2.995032572
  H   -2.479884185  -0.516346732  -1.206314104
  C    0.000000000   0.000000000   1.618680000
  C    0.696073300  -1.205270493   1.618680000
  C    2.086811777  -1.204570301   1.618680000
  C    2.781351788   0.000073608   1.618206714
  C    2.086133220   1.204332673   1.618703148
  C    0.694772436   1.204297750   1.619115643
  H   -1.081855174  -0.000547182   1.618966895
  H    0.154662747  -2.141459869   1.618423666
  H    2.627131233  -2.141539271   1.617663485
  H    3.863206963   0.000620790   1.617919818
  H    2.626689041   2.141533477   1.618463048
  H    0.152725612   2.140289866   1.619101645
