7
charge=0 charge_a=0 charge_b=0 selection_a=1-3 selection_b=4-7 scaling=1.00 benchmark_Eint=2.414 benchmark_unit=kcal/mol group=Halogens contact=I-N
  C   -1.995046365   0.000000000  -2.100000000
  I    0.000000000   0.000000000  -2.100000000
  N   -3.148469684   0.000804703  -2.100000000
  N    0.000000000   0.000000000   0.995420000
  H    0.912458819   0.232474929   1.368606697
  H   -0.254524440  -0.905600635   1.368315159
  H   -0.656852018   0.673125537   1.367873270
