6
charge=0 charge_a=0 charge_b=0 selection_a=1-3 selection_b=4-6 scaling=1.25 benchmark_Eint=-1.230 benchmark_unit=kcal/mol group=Halogens contact=I-N
  C   -2.735331436  -0.059932766   0.222949889
  H   -3.797331436  -0.083932766   0.308949889
  N   -1.594331436  -0.034932766   0.129949889
  C    2.309806110   1.634347602   1.026678633
  I    2.245934694   0.049209787  -0.183060409
  N    2.346795543   2.550296597   1.726718076
