8
charge=0 charge_a=0 charge_b=0 selection_a=1-3 selection_b=4-8 scaling=1.05 benchmark_Eint=1.398 benchmark_unit=kcal/mol group=Halogens contact=I-O
  H   -1.004584200  -0.486313027   1.938960870
  H   -0.430584200   0.925686973   1.990960870
  O   -0.518584200   0.158686973   1.419960870
  C   -0.165230811  -2.193599803  -1.841884090
  I    0.645943703  -0.197659032  -1.768690181
  H   -1.177168103  -2.117755675  -2.219929836
  H    0.462490048  -2.774538631  -2.505800953
  H   -0.147331119  -2.587923387  -0.834631633
