11
charge=0 charge_a=0 charge_b=0 selection_a=1-5 selection_b=6-11 scaling=1.05 benchmark_Eint=1.291 benchmark_unit=kcal/mol group=Halogens contact=I-O
  C   -2.155722849   0.000000000  -2.100000000
  I    0.000000000   0.000000000  -2.100000000
  H   -2.479116925   1.033491302  -2.100000000
  H   -2.479940315  -0.515857276  -2.995032572
  H   -2.479884185  -0.516346732  -1.206314104
  C    1.157616897  -0.000315728   2.073323155
  H    1.211242884  -0.890838981   2.706297554
  H   -0.780501652   0.000212874   1.804149951
  H    1.209539665   0.889059436   2.707147928
  H    2.017758047   0.001236294   1.408399255
  O    0.000000000   0.000000000   1.247052000
