13
charge=0 charge_a=0 charge_b=0 selection_a=1-3 selection_b=4-13 scaling=1.15 benchmark_Eint=-1.579 benchmark_unit=kcal/mol group=Halogens contact=I-O
  C   -1.995046365   0.000000000  -2.100000000
  I    0.000000000   0.000000000  -2.100000000
  N   -3.148469684   0.000804703  -2.100000000
  C   -0.000000000  -0.000000000   2.402133933
  O    0.000000000  -0.000000000   1.193476000
  C    0.833390554   0.983902696   3.197850383
  C   -0.831381875  -0.982319821   3.199515866
  H    1.553311174   0.446123235   3.819239595
  H   -0.195036178  -1.561723594   3.871409028
  H    0.199344400   1.559166677   3.875393613
  H    1.360747955   1.655065530   2.527497774
  H   -1.362636256  -1.653043380   2.529193042
  H   -1.547800057  -0.447172898   3.825576374
