6
charge=0 charge_a=0 charge_b=0 selection_a=1-3 selection_b=4-6 scaling=1.25 benchmark_Eint=-1.246 benchmark_unit=kcal/mol group=Halogens contact=I-O
  H   -1.004584200  -0.486313027   1.938960870
  H   -0.430584200   0.925686973   1.990960870
  O   -0.518584200   0.158686973   1.419960870
  C   -0.011362025  -2.073419966  -2.092073022
  I    0.739313424  -0.226230204  -2.024350399
  N   -0.446053420  -3.141068756  -2.131512232
