9
charge=0 charge_a=0 charge_b=0 selection_a=1-4 selection_b=5-9 scaling=1.25 benchmark_Eint=-0.187 benchmark_unit=kcal/mol group=Halogens contact=I-P
  H    2.629997318   0.717791816  -1.389164127
  H    2.351997318   1.939791816   0.252835873
  H    3.016997318   0.000791816   0.508835873
  P    1.939997318   0.644791816  -0.152164127
  C   -2.954808794   1.099446095   1.048648670
  I   -2.392612887  -0.795226465   0.187665131
  H   -3.236400035   1.754293710   0.233437670
  H   -3.787910750   0.917895952   1.715948959
  H   -2.095066582   1.480281356   1.583603652
