16
charge=0 charge_a=0 charge_b=0 selection_a=1-13 selection_b=14-16 scaling=1.10 benchmark_Eint=-0.514 benchmark_unit=kcal/mol group=Halogens contact=I-P
  C    2.680204605   0.705092983  -1.879184675
  C    2.396204605   2.294092983   0.447815325
  C    3.257204605  -0.394907017   0.664815325
  H    2.095204605   1.395092983  -2.487184675
  H    2.158204605   2.361092983   1.508815325
  H    3.229204605  -1.417907017   0.289815325
  H    2.630204605  -0.274907017  -2.353184675
  H    3.720204605   1.039092983  -1.869184675
  H    1.800204605   3.043092983  -0.073184675
  H    3.454204605   2.525092983   0.307815325
  H    3.055204605  -0.428907017   1.735815325
  H    4.259204605   0.010092983   0.508815325
  P    1.949204605   0.609092983  -0.179184675
  C   -1.312298659  -1.114816252   2.024519704
  I   -1.669626860  -0.521729736   0.153483911
  N   -1.105914961  -1.456975261   3.106517386
