14
charge=0 charge_a=0 charge_b=0 selection_a=1-9 selection_b=10-14 scaling=1.15 benchmark_Eint=-0.468 benchmark_unit=kcal/mol group=Halogens contact=I-S
  C    2.710400666  -1.252991357   1.254353618
  C    3.069400666  -2.471991357   1.753353618
  C    2.004400666  -3.412991357   1.713353618
  C    0.860400666  -2.888991357   1.185353618
  H   -0.089599334  -3.373991357   1.037353618
  H    2.085400666  -4.431991357   2.061353618
  H    3.313400666  -0.365991357   1.165353618
  H    4.055400666  -2.690991357   2.135353618
  S    1.073400666  -1.244991357   0.733353618
  C    0.315040755   2.049965551  -2.210027362
  I   -1.270441249   1.473530271  -0.867972897
  H    0.220462415   1.443074498  -3.101894049
  H    0.185684449   3.101807377  -2.431848730
  H    1.252473711   1.864932390  -1.702729440
