14
charge=0 charge_a=0 charge_b=0 selection_a=1-9 selection_b=10-14 scaling=1.10 benchmark_Eint=-0.060 benchmark_unit=kcal/mol group=Halogens contact=I-S
  C    2.710400666  -1.252991357   1.254353618
  C    3.069400666  -2.471991357   1.753353618
  C    2.004400666  -3.412991357   1.713353618
  C    0.860400666  -2.888991357   1.185353618
  H   -0.089599334  -3.373991357   1.037353618
  H    2.085400666  -4.431991357   2.061353618
  H    3.313400666  -0.365991357   1.165353618
  H    4.055400666  -2.690991357   2.135353618
  S    1.073400666  -1.244991357   0.733353618
  C    0.416906478   1.931815871  -2.140432104
  I   -1.168575525   1.355380591  -0.798377639
  H    0.322328138   1.324924818  -3.032298791
  H    0.287550173   2.983657697  -2.362253471
  H    1.354339435   1.746782710  -1.633134182
