8
charge=0 charge_a=0 charge_b=0 selection_a=1-5 selection_b=6-8 scaling=1.05 benchmark_Eint=0.946 benchmark_unit=kcal/mol group=Halogens contact=I-S
  C   -2.155722849   0.000000000  -2.100000000
  I    0.000000000   0.000000000  -2.100000000
  H   -2.479116925   1.033491302  -2.100000000
  H   -2.479940315  -0.515857276  -2.995032572
  H   -2.479884185  -0.516346732  -1.206314104
  H   -0.968286863   0.000130738   2.455779248
  H    0.968872298  -0.000130818   2.456339851
  S    0.000000000   0.000000000   1.528560000
