6
charge=0 charge_a=0 charge_b=0 selection_a=1-3 selection_b=4-6 scaling=1.00 benchmark_Eint=2.301 benchmark_unit=kcal/mol group=Halogens contact=I-S
  H    0.880172729  -2.754189816   0.122632441
  H    0.117172729  -2.395189816  -1.621367559
  S    0.329172729  -1.699189816  -0.494367559
  C    0.499155194   1.108389802   2.226294169
  I   -0.286468054   1.478748257   0.430231608
  N    0.954083158   0.894488938   3.264404457
