10
charge=0 charge_a=0 charge_b=0 selection_a=1-5 selection_b=6-10 scaling=1.00 benchmark_Eint=1.938 benchmark_unit=kcal/mol group=Halogens contact=I-F
  C   -2.155722849   0.000000000  -2.100000000
  I    0.000000000   0.000000000  -2.100000000
  H   -2.479116925   1.033491302  -2.100000000
  H   -2.479940315  -0.515857276  -2.995032572
  H   -2.479884185  -0.516346732  -1.206314104
  C    1.390184861  -0.000232202   0.996450000
  F    0.000000000  -0.000000000   0.996450000
  H    1.740137897   1.030823021   0.996450000
  H    1.740506059  -0.516050322   1.889249935
  H    1.740208361  -0.515427484   0.102833544
