8
charge=0 charge_a=0 charge_b=0 selection_a=1-5 selection_b=6-8 scaling=1.00 benchmark_Eint=2.096 benchmark_unit=kcal/mol group=Halogens contact=I-F
  C   -2.155722849   0.000000000  -2.100000000
  I    0.000000000   0.000000000  -2.100000000
  H   -2.479116925   1.033491302  -2.100000000
  H   -2.479940315  -0.515857276  -2.995032572
  H   -2.479884185  -0.516346732  -1.206314104
  C    1.264834305  -0.000425980   0.853300000
  F   -0.000000000  -0.000000000   0.853300000
  N    2.415469725  -0.000067798   0.853300000
