6
charge=0 charge_a=0 charge_b=0 selection_a=1-3 selection_b=4-6 scaling=1.25 benchmark_Eint=-1.149 benchmark_unit=kcal/mol group=Halogens contact=I-Cl
  C   -1.995046365   0.000000000  -2.100000000
  I    0.000000000   0.000000000  -2.100000000
  N   -3.148469684   0.000804703  -2.100000000
  C    1.631270900  -0.000499684   2.015904000
 Cl    0.000000000   0.000000000   2.015904000
  N    2.783300372  -0.000190975   2.015904000
