13
charge=0 charge_a=0 charge_b=0 selection_a=1 selection_b=2-13 scaling=1.10 benchmark_Eint=0.686 benchmark_unit=kcal/mol group=NobleGases contact=He-C
 He   -1.250000000   0.000000000   0.000000000
  C    1.463410000   0.000000000  -0.000000000
  C    1.463410000  -1.205177091  -0.696235002
  C    1.463410000  -1.204290307  -2.086973372
  C    1.462936714   0.000446776  -2.781351753
  C    1.463433148   1.204612554  -2.085971618
  C    1.463845643   1.204390956  -0.694610852
  H    1.463696895  -0.000692332   1.081855091
  H    1.463153666  -2.141439099  -0.154950061
  H    1.462393485  -2.141186775  -2.627418535
  H    1.462649818   0.001139107  -3.863206845
  H    1.463193048   2.141885874  -2.626401693
  H    1.463831645   2.140310337  -0.152438453
