7
charge=0 charge_a=0 charge_b=0 selection_a=1 selection_b=2-7 scaling=1.10 benchmark_Eint=0.814 benchmark_unit=kcal/mol group=NobleGases contact=He-C
 He   -1.250000000   0.000000000   0.000000000
  C    1.525360000   0.000000000  -0.000000000
  C    1.525360000  -0.000277200  -1.324750136
  H    1.525360000   0.920153533   0.569244654
  H    1.526541686  -0.920439638   0.568625076
  H    1.524178314   0.920162438  -1.893375212
  H    1.525914680  -0.919599132  -1.893967035
