11
charge=0 charge_a=0 charge_b=0 selection_a=1 selection_b=2-11 scaling=1.05 benchmark_Eint=1.123 benchmark_unit=kcal/mol group=NobleGases contact=He-O
 He   -1.250000000   0.000000000   0.000000000
  C    2.262743933  -0.000000000   0.000000000
  O    1.054086000  -0.000000000  -0.000000000
  C    3.058460383   0.991586485  -0.824233324
  C    3.060125866  -0.989985056   0.822239407
  H    3.679849595   0.460504265  -1.549108571
  H    3.732019028  -1.563464593   0.180549607
  H    3.736003613   1.560947726  -0.184881348
  H    2.388107774   1.667609422  -1.345345949
  H    2.389803042  -1.665604865   1.347252915
  H    3.686186374  -0.461502791   1.543587960
