5
charge=0 charge_a=0 charge_b=0 selection_a=1 selection_b=2-5 scaling=1.10 benchmark_Eint=0.819 benchmark_unit=kcal/mol group=NobleGases contact=He-P
 He   -1.250000000   0.000000000   0.000000000
  H    2.609523648   1.140316943   0.349040982
  H    2.608920159  -0.872504435   0.813025611
  H    2.609355705  -0.267637294  -1.162225652
  P    1.841770000   0.000000000  -0.000000000
