10
charge=0 charge_a=0 charge_b=0 selection_a=1 selection_b=2-10 scaling=1.15 benchmark_Eint=0.357 benchmark_unit=kcal/mol group=NobleGases contact=He-S
 He   -1.250000000   0.000000000   0.000000000
  C    2.947941698  -0.247752222  -1.210068065
  C    4.208463231  -0.142468663  -0.696410750
  C    4.207924904   0.142681846   0.696426246
  C    2.948171269   0.247799858   1.210300726
  H    2.656812291   0.455417597   2.225994489
  H    5.102813075   0.264225943   1.288396005
  H    2.657766584  -0.455376039  -2.225444721
  H    5.103556145  -0.263171676  -1.288289502
  S    1.753944999   0.000000000   0.000000000
