4
charge=0 charge_a=0 charge_b=0 selection_a=1 selection_b=2-4 scaling=1.15 benchmark_Eint=0.276 benchmark_unit=kcal/mol group=NobleGases contact=He-Cl
 He   -1.250000000   0.000000000   0.000000000
  C    1.663042000  -0.000244472  -1.631270959
 Cl    1.663042000   0.000000000  -0.000000000
  N    1.663042000   0.000244472  -2.783300368
