8
charge=0 charge_a=0 charge_b=0 selection_a=1 selection_b=2-8 scaling=1.00 benchmark_Eint=2.221 benchmark_unit=kcal/mol group=NobleGases contact=Ne-N
 Ne   -1.400000000   0.000000000   0.000000000
  N    1.208800000  -0.000000000  -0.000000000
  C    1.626698578  -0.492148343  -1.313226860
  H    1.566633618  -0.590260411   0.738650627
  H    1.215021716   0.155280870  -2.087298288
  H    1.211351697  -1.487566623  -1.471389490
  H    2.711191530  -0.551510816  -1.464389467
  H    1.566925878   0.930313421   0.168608405
