8
charge=0 charge_a=0 charge_b=0 selection_a=1 selection_b=2-8 scaling=1.10 benchmark_Eint=0.621 benchmark_unit=kcal/mol group=NobleGases contact=Ne-N
 Ne   -1.400000000   0.000000000   0.000000000
  N    1.469500000  -0.000000000  -0.000000000
  C    1.887398578  -0.492148343  -1.313226860
  H    1.827333618  -0.590260411   0.738650627
  H    1.475721716   0.155280870  -2.087298288
  H    1.472051697  -1.487566623  -1.471389490
  H    2.971891530  -0.551510816  -1.464389467
  H    1.827625878   0.930313421   0.168608405
