4
charge=0 charge_a=0 charge_b=0 selection_a=1 selection_b=2-4 scaling=1.15 benchmark_Eint=0.183 benchmark_unit=kcal/mol group=NobleGases contact=Ne-N
 Ne   -1.400000000   0.000000000   0.000000000
  C    2.643356767   0.000000000  -0.000000000
  H    3.709103056  -0.000855013   0.000342005
  N    1.498300000  -0.000000000  -0.000000000
