7
charge=0 charge_a=0 charge_b=0 selection_a=1 selection_b=2-7 scaling=1.00 benchmark_Eint=1.931 benchmark_unit=kcal/mol group=NobleGases contact=Ne-O
 Ne   -1.400000000   0.000000000   0.000000000
  C    1.857755155  -0.517845507  -1.035332318
  H    2.490729554  -1.338382979  -0.685152840
  H    1.588581951   0.349147697   0.698053550
  H    2.491579928   0.254474843  -1.479410503
  H    1.192831255  -0.901020836  -1.805411453
  O    1.031484000   0.000000000  -0.000000000
