9
charge=0 charge_a=0 charge_b=0 selection_a=1 selection_b=2-9 scaling=1.10 benchmark_Eint=0.693 benchmark_unit=kcal/mol group=NobleGases contact=Ne-P
 Ne   -1.400000000   0.000000000   0.000000000
  C    2.943117146   1.306918706  -0.652392590
  C    2.821108405  -1.167357894   0.582726099
  H    3.992684713   1.047725330  -0.529540177
  H    2.401811615  -2.060294810   1.028765183
  H    3.902973220  -1.116509733   0.556420430
  H    2.743743214   2.248773568  -0.139159256
  H    2.735013389   1.469993860  -1.711444204
  P    1.800565000   0.000000000  -0.000000000
