7
charge=0 charge_a=0 charge_b=0 selection_a=1 selection_b=2-7 scaling=1.10 benchmark_Eint=0.497 benchmark_unit=kcal/mol group=NobleGases contact=Ne-S
 Ne   -1.400000000   0.000000000   0.000000000
  C    2.837293725  -0.433338166  -1.298903607
  H    3.457110851  -1.272791293  -0.997948162
  H    2.518905637   0.318898768   0.955878782
  H    3.457571573   0.419654636  -1.562628219
  H    2.252545470  -0.723189984  -2.168696916
  S    1.631680000   0.000000000  -0.000000000
