6
charge=0 charge_a=0 charge_b=0 selection_a=1-5 selection_b=6 scaling=1.25 benchmark_Eint=-0.402 benchmark_unit=kcal/mol group=NobleGases contact=Ar-C
  C   -1.700000000   0.000000000   0.000000000
  H   -2.787765140   0.000000000  -0.000000000
  H   -1.337649723   1.026186765   0.000000000
  H   -1.336769018  -0.512274047   0.887247178
  H   -1.337354622  -0.511979565  -0.888678938
 Ar    1.958491851  -0.000662853   0.000490932
