11
charge=0 charge_a=0 charge_b=0 selection_a=1 selection_b=2-11 scaling=1.00 benchmark_Eint=1.557 benchmark_unit=kcal/mol group=NobleGases contact=Ar-O
 Ar   -1.800000000   0.000000000   0.000000000
  C    2.130725933  -0.000000000   0.000000000
  O    0.922068000   0.000000000   0.000000000
  C    2.926442383   0.988359437  -0.828100208
  C    2.928107866  -0.986765808   0.826100050
  H    3.547831595   0.454449880  -1.550895499
  H    3.600001028  -1.562747433   0.186655176
  H    3.603985613   1.560213665  -0.190977054
  H    2.256089774   1.662341733  -1.351849426
  H    2.257785042  -1.660329742   1.353748548
  H    3.554168374  -0.455469962   1.545378831
