4
charge=0 charge_a=0 charge_b=0 selection_a=1-3 selection_b=4 scaling=1.00 benchmark_Eint=1.713 benchmark_unit=kcal/mol group=NobleGases contact=Ar-O
  H   -1.004584200  -0.486313027   1.938960870
  H   -0.430584200   0.925686973   1.990960870
  O   -0.518584200   0.158686973   1.419960870
 Ar    0.426311694  -0.130451549  -1.167304990
