9
charge=0 charge_a=0 charge_b=0 selection_a=1 selection_b=2-9 scaling=1.10 benchmark_Eint=0.287 benchmark_unit=kcal/mol group=NobleGases contact=Ar-P
 Ar   -1.800000000   0.000000000   0.000000000
  C    2.927287146   1.306918706  -0.652392590
  C    2.805278405  -1.167357894   0.582726099
  H    3.976854713   1.047725330  -0.529540177
  H    2.385981615  -2.060294810   1.028765183
  H    3.887143220  -1.116509733   0.556420430
  H    2.727913214   2.248773568  -0.139159256
  H    2.719183389   1.469993860  -1.711444204
  P    1.784735000   0.000000000  -0.000000000
