4
charge=0 charge_a=0 charge_b=0 selection_a=1-3 selection_b=4 scaling=1.25 benchmark_Eint=-0.463 benchmark_unit=kcal/mol group=NobleGases contact=Ar-I
  C   -1.995046365   0.000000000  -2.100000000
  I    0.000000000   0.000000000  -2.100000000
  N   -3.148469684   0.000804703  -2.100000000
 Ar   -0.000000000   0.000000000   2.069100000
