5
charge=0 charge_a=0 charge_b=0 selection_a=1 selection_b=2-5 scaling=1.25 benchmark_Eint=-0.335 benchmark_unit=kcal/mol group=NobleGases contact=Kr-H
 Kr   -1.930000000   0.000000000   0.000000000
  C    2.016511125   0.000000000   0.000000000
  C    3.212391701  -0.000285764  -0.000752078
  H    0.955064000   0.000000000  -0.000000000
  H    4.273810563  -0.000538036  -0.001719321
