5
charge=0 charge_a=0 charge_b=0 selection_a=1 selection_b=2-5 scaling=1.05 benchmark_Eint=1.144 benchmark_unit=kcal/mol group=NobleGases contact=Kr-H
 Kr   -1.930000000   0.000000000   0.000000000
  C    1.554868125   0.000000000   0.000000000
  C    2.750748701  -0.000285764  -0.000752078
  H    0.493421000   0.000000000  -0.000000000
  H    3.812167563  -0.000538036  -0.001719321
