5
charge=0 charge_a=0 charge_b=0 selection_a=1 selection_b=2-5 scaling=1.10 benchmark_Eint=0.486 benchmark_unit=kcal/mol group=NobleGases contact=Kr-H
 Kr   -1.930000000   0.000000000   0.000000000
  B    2.022023096  -0.000000001  -0.000000000
  H    0.834671000  -0.000000000  -0.000000000
  H    2.615728200  -0.250060949  -0.998267385
  H    2.616243633   0.249072155   0.997434716
