4
charge=0 charge_a=0 charge_b=0 selection_a=1 selection_b=2-4 scaling=1.25 benchmark_Eint=-0.387 benchmark_unit=kcal/mol group=NobleGases contact=Kr-N
 Kr   -1.930000000   0.000000000   0.000000000
  C    2.955091767   0.000000000  -0.000000000
  H    4.020838056  -0.000856123   0.000339218
  N    1.810035000   0.000000000   0.000000000
