10
charge=0 charge_a=0 charge_b=0 selection_a=1 selection_b=2-10 scaling=1.05 benchmark_Eint=0.491 benchmark_unit=kcal/mol group=NobleGases contact=Kr-O
 Kr   -1.930000000   0.000000000   0.000000000
  C    1.884326980   0.797101094   0.748106253
  C    3.185143873   0.521537665   0.490695672
  C    3.185109462  -0.523430872  -0.489612319
  C    1.884127588  -0.796905061  -0.747922269
  H    1.389747603  -1.492958207  -1.400587917
  H    4.039775505  -1.000172165  -0.935574978
  H    1.389770074   1.492884380   1.399903833
  H    4.039375640   0.997503033   0.937951815
  O    1.073570000  -0.000000000  -0.000000000
