11
charge=0 charge_a=0 charge_b=0 selection_a=1 selection_b=2-11 scaling=1.00 benchmark_Eint=1.425 benchmark_unit=kcal/mol group=NobleGases contact=Kr-O
 Kr   -1.930000000   0.000000000   0.000000000
  C    2.114902933  -0.000000000   0.000000000
  O    0.906245000   0.000000000  -0.000000000
  C    2.910619383   0.988359437  -0.828100208
  C    2.912284866  -0.986765808   0.826100050
  H    3.532008595   0.454449880  -1.550895499
  H    3.584178028  -1.562747433   0.186655176
  H    3.588162613   1.560213665  -0.190977054
  H    2.240266774   1.662341733  -1.351849426
  H    2.241962042  -1.660329742   1.353748548
  H    3.538345374  -0.455469962   1.545378831
