4
charge=0 charge_a=0 charge_b=0 selection_a=1 selection_b=2-4 scaling=1.15 benchmark_Eint=-0.490 benchmark_unit=kcal/mol group=NobleGases contact=Kr-Cl
 Kr   -1.930000000   0.000000000   0.000000000
  C    1.710994000  -0.000244472  -1.631270959
 Cl    1.710994000  -0.000000000  -0.000000000
  N    1.710994000   0.000244472  -2.783300368
