5
charge=0 charge_a=0 charge_b=0 selection_a=1 selection_b=2-5 scaling=1.10 benchmark_Eint=0.491 benchmark_unit=kcal/mol group=NobleGases contact=Xe-H
 Xe   -2.100000000   0.000000000   0.000000000
  B    2.023602096  -0.000000001  -0.000000001
  H    0.836250000   0.000000000  -0.000000000
  H    2.617307200   0.116113262  -1.022538978
  H    2.617822633  -0.116747019   1.021412299
