5
charge=0 charge_a=0 charge_b=0 selection_a=1 selection_b=2-5 scaling=1.15 benchmark_Eint=0.001 benchmark_unit=kcal/mol group=NobleGases contact=Xe-H
 Xe   -2.100000000   0.000000000   0.000000000
  C    1.799097125   0.000000000   0.000000000
  C    2.994977701  -0.000285764  -0.000752078
  H    0.737650000   0.000000000  -0.000000000
  H    4.056396563  -0.000538036  -0.001719321
