5
charge=0 charge_a=0 charge_b=0 selection_a=1 selection_b=2-5 scaling=1.05 benchmark_Eint=1.274 benchmark_unit=kcal/mol group=NobleGases contact=Xe-H
 Xe   -2.100000000   0.000000000   0.000000000
  C    1.552307125   0.000000000   0.000000000
  C    2.748187701  -0.000285764  -0.000752078
  H    0.490860000   0.000000000  -0.000000000
  H    3.809606563  -0.000538036  -0.001719321
