5
charge=0 charge_a=0 charge_b=0 selection_a=1 selection_b=2-5 scaling=1.15 benchmark_Eint=0.094 benchmark_unit=kcal/mol group=NobleGases contact=Xe-H
 Xe   -2.100000000   0.000000000   0.000000000
  B    2.157002096  -0.000000001  -0.000000001
  H    0.969650000   0.000000000  -0.000000000
  H    2.750707200   0.116113262  -1.022538978
  H    2.751222633  -0.116747019   1.021412299
