7
charge=0 charge_a=0 charge_b=0 selection_a=1 selection_b=2-7 scaling=1.05 benchmark_Eint=0.713 benchmark_unit=kcal/mol group=NobleGases contact=Xe-C
 Xe   -2.100000000   0.000000000   0.000000000
  C    1.350020000  -0.000000000  -0.000000000
  C    1.350020000  -0.000277200  -1.324750136
  H    1.350020000   0.920153533   0.569244654
  H    1.351201686  -0.920439638   0.568625076
  H    1.348838314   0.920162438  -1.893375212
  H    1.350574680  -0.919599132  -1.893967035
