6
charge=0 charge_a=0 charge_b=0 selection_a=1 selection_b=2-6 scaling=1.25 benchmark_Eint=-0.558 benchmark_unit=kcal/mol group=NobleGases contact=Xe-C
 Xe   -2.100000000   0.000000000   0.000000000
  C    1.917321167  -0.000035755   0.000715094
  H    3.005086210  -0.000058633   0.001172655
  H    1.555318235  -0.568843597  -0.853549804
  H    1.553694433  -0.454545328   0.918737777
  H    1.554725305   1.023424680  -0.065903067
