9
charge=0 charge_a=0 charge_b=0 selection_a=1 selection_b=2-9 scaling=1.15 benchmark_Eint=-0.353 benchmark_unit=kcal/mol group=NobleGases contact=Xe-P
 Xe   -2.100000000   0.000000000   0.000000000
  C    3.088802146   1.033547297  -1.032197936
  C    2.966793405  -0.923178764   0.921973496
  H    4.138369713   0.826504214  -0.833685762
  H    2.547496615  -1.629243160   1.627494772
  H    4.048658220  -0.883258547   0.880938148
  H    2.889428214   2.089367904  -0.843142703
  H    2.880698389   0.853352446  -2.088471406
  P    1.946250000  -0.000000000   0.000000000
