10
charge=0 charge_a=0 charge_b=0 selection_a=1 selection_b=2-10 scaling=1.05 benchmark_Eint=0.560 benchmark_unit=kcal/mol group=NobleGases contact=Xe-S
 Xe   -2.100000000   0.000000000   0.000000000
  C    2.646506698  -1.221947808   0.180248272
  C    3.907028231  -0.703241263   0.103619393
  C    3.906489905   0.703268560  -0.103831389
  C    2.646736269   1.222182753  -0.180282929
  H    2.355377291   2.247829267  -0.331240457
  H    4.801378075   1.301068948  -0.192351777
  H    2.356331584  -2.247278040   0.331229459
  H    4.802121145  -1.300904129   0.191305040
  S    1.452509999  -0.000000000   0.000000000
