6
charge=0 charge_a=0 charge_b=0 selection_a=1 selection_b=2-6 scaling=1.25 benchmark_Eint=-0.696 benchmark_unit=kcal/mol group=NobleGases contact=Xe-F
 Xe   -2.100000000   0.000000000   0.000000000
  C    1.743000000  -0.000045684  -1.390184879
  F    1.743000000  -0.000000000  -0.000000000
  H    1.743000000   1.031056482  -1.739999578
  H    2.635799935  -0.515816798  -1.740575280
  H    0.849383544  -0.515194000  -1.740277499
