6
charge=0 charge_a=0 charge_b=0 selection_a=1 selection_b=2-6 scaling=1.00 benchmark_Eint=1.628 benchmark_unit=kcal/mol group=NobleGases contact=Xe-Br
 Xe   -2.100000000   0.000000000   0.000000000
  C    1.352000000   0.000031630  -1.959087032
 Br    1.352000000   0.000000000  -0.000000000
  H    1.352000000   1.032090397  -2.287508560
  H    2.245038547  -0.515702488  -2.286927654
  H    0.457932392  -0.516419539  -2.287207899
