4
charge=0 charge_a=0 charge_b=0 selection_a=1 selection_b=2-4 scaling=1.05 benchmark_Eint=0.429 benchmark_unit=kcal/mol group=NobleGases contact=Xe-I
 Xe   -2.100000000   0.000000000   0.000000000
  C    1.698060000  -0.000312125  -1.995046341
  I    1.698060000  -0.000000000  -0.000000000
  N    1.698060000   0.000312125  -3.148469771
