11
charge=1 charge_a=1 charge_b=0 selection_a=1-4 selection_b=5-11 scaling=1.0 benchmark_Eint=-22.418 benchmark_unit=kcal/mol group=OHk-O
  O   -1.521483378  -1.716488413   0.495043660
  H   -1.062363600  -2.447333837   0.942523180
  H   -0.926219885  -0.836209544   0.371590833
  H   -1.946441714  -2.027010922  -0.322361388
  H    0.510012277   1.894428823   1.410365802
  H   -0.493386401   2.363682951  -0.011997979
  H   -1.255966283   1.560349659   1.403560466
  C   -0.359529604   1.665111175   0.805618626
  O   -0.138893094   0.309285630   0.202853734
  C    0.902667974   0.172855910  -0.575150207
  N    1.803516474  -0.004241795  -1.267707137
