11
charge=1 charge_a=1 charge_b=0 selection_a=1-4 selection_b=5-11 scaling=1.1 benchmark_Eint=-21.331 benchmark_unit=kcal/mol group=OHk-O
  O   -1.521483378  -1.716488413   0.495043660
  H   -1.062363600  -2.447333837   0.942523180
  H   -0.926219885  -0.836209544   0.371590833
  H   -1.946441714  -2.027010922  -0.322361388
  H    0.588744956   2.008978340   1.393492092
  H   -0.414653722   2.478232468  -0.028871689
  H   -1.177233604   1.674899176   1.386686756
  C   -0.280796925   1.779660692   0.788744916
  O   -0.060160415   0.423835147   0.185980024
  C    0.981400653   0.287405427  -0.592023917
  N    1.882249153   0.110307722  -1.284580847
