19
charge=1 charge_a=1 charge_b=0 selection_a=1-10 selection_b=11-19 scaling=0.95 benchmark_Eint=-28.898 benchmark_unit=kcal/mol group=NHk-O
  N   -1.680448891   0.744830915  -0.335191555
  C   -2.190411302  -0.455973451  -0.094953185
  N   -1.368031766  -1.450366722   0.219899027
  N   -3.509191876  -0.664244489  -0.167801637
  H   -0.668454567   0.858474530  -0.268049544
  H   -2.266037033   1.522787222  -0.575670539
  H   -0.370833620  -1.257177633   0.266644511
  H   -1.711861930  -2.373317944   0.408957309
  H   -4.141651233   0.077914060  -0.405020561
  H   -3.905486009  -1.568561446   0.011786337
  H    4.023042303  -0.111119347   0.401745921
  H    2.840114775  -1.353636228   0.589462572
  H    2.129615499   2.136888022  -1.222123646
  H    1.971378199   2.545378605   0.482319171
  H    3.545788952   2.053583488  -0.162160713
  O    0.893599027   0.110178408   0.056984484
  C    2.080108901   0.465260588   0.082423750
  N    3.060281181  -0.394542315   0.379938356
  C    2.474521047   1.883858174  -0.220947732
