20
charge=1 charge_a=1 charge_b=0 selection_a=1-10 selection_b=11-20 scaling=1.25 benchmark_Eint=-19.045 benchmark_unit=kcal/mol group=NHk-O
  C   -3.167180575  -0.588273807  -0.772306193
  C   -1.851108021  -0.774012663  -1.050491518
  N   -1.134380285  -0.085828452  -0.098201041
  H   -0.094331637  -0.016480546  -0.014375535
  C   -1.971762638   0.505347377   0.740634761
  N   -3.214108972   0.213109063   0.349185427
  H   -4.052671449  -0.946703307  -1.261019126
  H   -1.376351158  -1.330951994  -1.835176159
  H   -1.697491389   1.110898374   1.584423744
  H   -4.052201635   0.532899629   0.808414803
  H    4.160099574   0.011739689  -1.458434659
  H    2.558776763  -0.768747068  -1.525609330
  H    3.877858553  -1.460112340  -0.558372251
  H    3.654405135   1.243919313   2.091326480
  H    4.560601131   1.639218769   0.614983221
  C    3.406481578  -0.532285714  -0.889520285
  C    2.985511909   0.254337335   0.315714908
  O    1.806208193   0.417009863   0.600051795
  C    4.064681510   0.840583884   1.171465733
  H    4.829287300   0.094858936   1.389328678
