22
charge=1 charge_a=1 charge_b=0 selection_a=1-10 selection_b=11-22 scaling=0.9 benchmark_Eint=-28.491 benchmark_unit=kcal/mol group=NHk-O
  C   -3.497542269   0.710807577  -0.650286189
  C   -2.298684118   1.080997940  -0.129442932
  N   -1.411366576   0.058507231  -0.373208489
  H   -0.379472526   0.018696910  -0.099046583
  C   -2.034905912  -0.911575519  -1.021528544
  N   -3.305689594  -0.538068570  -1.201846482
  H   -4.445830156   1.212147913  -0.676820737
  H   -2.012513669   1.977015651   0.386856667
  H   -1.596756705  -1.836981593  -1.346058522
  H   -4.007903516  -1.088892669  -1.669046453
  C    1.710246983   1.679540004   1.308260145
  H    1.375920434   2.374491608   0.539244116
  H    2.619300239   2.069054820   1.758403289
  H    0.937639055   1.623810048   2.073812638
  C    1.889548203   0.318111360   0.693447132
  O    0.949409234  -0.275257206   0.135433724
  N    3.096352769  -0.239951706   0.764160983
  H    3.832603380   0.267019894   1.222221605
  C    3.392335040  -1.553213578   0.206096679
  H    2.771515149  -2.314276508   0.673592799
  H    3.206298587  -1.562003930  -0.865560329
  H    4.437111876  -1.779484424   0.390645152
