12
charge=1 charge_a=1 charge_b=0 selection_a=1-5 selection_b=6-12 scaling=1.5 benchmark_Eint=-17.201 benchmark_unit=kcal/mol group=NHk-O
  N   -1.376678580   1.495225042  -1.670772311
  H   -0.661760795   1.276850866  -0.919599616
  H   -0.920645618   1.903098735  -2.486251104
  H   -2.075729519   2.146928368  -1.315885175
  H   -1.830894748   0.621079448  -1.936966169
  H    1.587243490  -0.775395066   2.994637737
  H    1.616249165  -2.327226562   2.077203075
  H    2.824309589  -1.029955206   1.747099403
  C    1.807250679  -1.262969660   2.049176777
  N    0.902353645  -0.662066608   1.029538454
  O    0.985309369   0.561610970   0.858143606
  O    0.134510945  -1.367357396   0.416310388
