20
charge=1 charge_a=1 charge_b=0 selection_a=1-10 selection_b=11-20 scaling=1.5 benchmark_Eint=-14.556 benchmark_unit=kcal/mol group=NHk-O
  C   -3.167180575  -0.588273807  -0.772306193
  C   -1.851108021  -0.774012663  -1.050491518
  N   -1.134380285  -0.085828452  -0.098201041
  H   -0.094331637  -0.016480546  -0.014375535
  C   -1.971762638   0.505347377   0.740634761
  N   -3.214108972   0.213109063   0.349185427
  H   -4.052671449  -0.946703307  -1.261019126
  H   -1.376351158  -1.330951994  -1.835176159
  H   -1.697491389   1.110898374   1.584423744
  H   -4.052201635   0.532899629   0.808414803
  H    4.540207540   0.098437770  -1.335549193
  H    2.938884729  -0.682048986  -1.402723864
  H    4.257966519  -1.373414258  -0.435486785
  H    4.034513101   1.330617394   2.214211946
  H    4.940709097   1.725916850   0.737868687
  C    3.786589544  -0.445587632  -0.766634819
  C    3.365619875   0.341035416   0.438600374
  O    2.186316159   0.503707944   0.722937261
  C    4.444789476   0.927281966   1.294351199
  H    5.209395266   0.181557018   1.512214144
