17
charge=1 charge_a=1 charge_b=0 selection_a=1-10 selection_b=11-17 scaling=0.95 benchmark_Eint=-20.256 benchmark_unit=kcal/mol group=NHk-O
  N   -1.786111923   0.590129888  -0.040811353
  C   -2.024921712  -0.696799479  -0.263887590
  N   -1.011810548  -1.552973326  -0.323514093
  N   -3.278468515  -1.128148630  -0.427291735
  H   -0.837002790   0.928377147   0.083905788
  H   -2.536672588   1.255032158   0.007697558
  H   -0.055286478  -1.235275995  -0.201435397
  H   -1.169103218  -2.530100213  -0.491655197
  H   -4.057765114  -0.496634037  -0.385692747
  H   -3.479563581  -2.097016386  -0.596702235
  H    3.272986976   2.137658154   0.108762775
  H    3.413461034   1.035758591   1.504741591
  H    3.883417670   0.447779017  -0.112725745
  C    3.222493863   1.106808712   0.436075591
  N    1.824878177   0.629069670   0.229339311
  O    1.650706291  -0.563163545   0.029487914
  O    0.923264024   1.450380459   0.294464887
