23
charge=1 charge_a=1 charge_b=0 selection_a=1-14 selection_b=15-23 scaling=1.1 benchmark_Eint=-27.301 benchmark_unit=kcal/mol group=NHk-O
  C    1.176363244  -1.202231274  -1.919947005
  N    0.090428709  -0.206623689  -1.711337033
  H   -0.012513284  -0.048268848  -0.675975097
  C    0.426676448   1.112931575  -2.315856793
  C   -1.223955242  -0.713037086  -2.197499927
  H    2.099077943  -0.810561679  -1.503403277
  H    1.299875834  -1.382893582  -2.984178917
  H    0.908423438  -2.126659390  -1.418031788
  H    1.363439568   1.463977208  -1.894982854
  H   -0.365577217   1.815773989  -2.080315894
  H    0.521210873   1.001038249  -3.392473175
  H   -1.449944385  -1.645750443  -1.690807305
  H   -1.171540994  -0.874863547  -3.270645369
  H   -1.987344921   0.022179723  -1.965762273
  H   -0.681013282   0.838886793   4.079669020
  H   -1.698224708   1.489878237   2.842641450
  H    0.843978671  -1.535362772   2.243649910
  H    1.886398289  -0.119619251   2.138330102
  H    1.114590786  -0.532284255   3.675666665
  O   -0.491427288   0.439404359   0.960307125
  C   -0.191465758   0.316457308   2.155805132
  N   -0.907071537   0.925325181   3.105449580
  C    0.981862560  -0.515058868   2.597732926
