17
charge=1 charge_a=1 charge_b=0 selection_a=1-5 selection_b=6-17 scaling=1.1 benchmark_Eint=-36.116 benchmark_unit=kcal/mol group=NHk-O
  N   -2.041123496   1.328285495  -2.089030747
  H   -1.459924376   2.156768699  -2.198412099
  H   -2.152529334   0.878229328  -2.995399263
  H   -2.957531985   1.608053495  -1.744930148
  H   -1.568140965   0.635238385  -1.379955620
  H    2.777111056   0.329120124   0.410650640
  H    1.911553070   1.116911572   1.757047269
  H    2.389173469   2.069028541   0.325104638
  H   -0.968562609  -2.109955643   1.794062032
  H   -0.103321978  -2.897835740   0.447696990
  H    0.640864275  -2.836456309   2.071764408
  O    0.795762734   0.861407621   0.007327732
  C    0.133223625  -0.252736845   0.233419471
  O   -0.938781798  -0.461777444  -0.333370258
  O    0.694795378  -1.075964958   1.076211786
  C    0.003832899  -2.323981234   1.362480473
  C    2.063817052   1.100264987   0.682779311
