19
charge=1 charge_a=1 charge_b=0 selection_a=1-10 selection_b=11-19 scaling=2.0 benchmark_Eint=-12.934 benchmark_unit=kcal/mol group=NHk-O
  N   -1.680448891   0.744830915  -0.335191555
  C   -2.190411302  -0.455973451  -0.094953185
  N   -1.368031766  -1.450366722   0.219899027
  N   -3.509191876  -0.664244489  -0.167801637
  H   -0.668454567   0.858474530  -0.268049544
  H   -2.266037033   1.522787222  -0.575670539
  H   -0.370833620  -1.257177633   0.266644511
  H   -1.711861930  -2.373317944   0.408957309
  H   -4.141651233   0.077914060  -0.405020561
  H   -3.905486009  -1.568561446   0.011786337
  H    5.749522591  -0.938183481   0.760994057
  H    4.566595063  -2.180700362   0.948710708
  H    3.856095787   1.309823888  -0.862875510
  H    3.697858487   1.718314471   0.841567307
  H    5.272269240   1.226519354   0.197087423
  O    2.620079315  -0.716885726   0.416232620
  C    3.806589189  -0.361803546   0.441671886
  N    4.786761469  -1.221606449   0.739186492
  C    4.201001335   1.056794040   0.138300404
