12
charge=1 charge_a=1 charge_b=0 selection_a=1-5 selection_b=6-12 scaling=0.95 benchmark_Eint=-25.765 benchmark_unit=kcal/mol group=NHk-O
  N   -0.005156717   0.027401505   2.669644732
  H   -0.003019297   0.057513514   1.594149372
  H    0.822944025   0.490411135   3.040976543
  H   -0.003677188  -0.946025893   2.972823075
  H   -0.836842838   0.486776067   3.037470832
  H    0.876816777   0.155148554  -2.809367438
  H   -0.865652164   0.157303683  -2.812627898
  H    0.002636661  -1.282351907  -2.193136041
  H    0.003754526   1.529933755  -0.886042335
  C    0.004101584  -0.198709259  -2.253545999
  C    0.002356960   0.429285898  -0.916287279
  O   -0.000503798  -0.200476447   0.130472345
