17
charge=1 charge_a=1 charge_b=0 selection_a=1-5 selection_b=6-17 scaling=1.05 benchmark_Eint=-36.788 benchmark_unit=kcal/mol group=NHk-O
  N   -2.041123496   1.328285495  -2.089030747
  H   -1.459924376   2.156768699  -2.198412099
  H   -2.152529334   0.878229328  -2.995399263
  H   -2.957531985   1.608053495  -1.744930148
  H   -1.568140965   0.635238385  -1.379955620
  H    2.748503821   0.378984480   0.363078578
  H    1.882945835   1.166775928   1.709475207
  H    2.360566234   2.118892897   0.277532576
  H   -0.997169844  -2.060091287   1.746489970
  H   -0.131929213  -2.847971384   0.400124928
  H    0.612257040  -2.786591953   2.024192346
  O    0.767155499   0.911271977  -0.040244330
  C    0.104616390  -0.202872489   0.185847409
  O   -0.967389033  -0.411913088  -0.380942320
  O    0.666188143  -1.026100602   1.028639724
  C   -0.024774336  -2.274116878   1.314908411
  C    2.035209817   1.150129343   0.635207249
