19
charge=1 charge_a=1 charge_b=0 selection_a=1-10 selection_b=11-19 scaling=1.1 benchmark_Eint=-28.413 benchmark_unit=kcal/mol group=NHk-O
  N   -1.680448891   0.744830915  -0.335191555
  C   -2.190411302  -0.455973451  -0.094953185
  N   -1.368031766  -1.450366722   0.219899027
  N   -3.509191876  -0.664244489  -0.167801637
  H   -0.668454567   0.858474530  -0.268049544
  H   -2.266037033   1.522787222  -0.575670539
  H   -0.370833620  -1.257177633   0.266644511
  H   -1.711861930  -2.373317944   0.408957309
  H   -4.141651233   0.077914060  -0.405020561
  H   -3.905486009  -1.568561446   0.011786337
  H    4.269682344  -0.229271366   0.453067083
  H    3.086754816  -1.471788247   0.640783734
  H    2.376255540   2.018736003  -1.170802484
  H    2.218018240   2.427226586   0.533640333
  H    3.792428993   1.935431469  -0.110839551
  O    1.140239068  -0.007973611   0.108305646
  C    2.326748942   0.347108569   0.133744912
  N    3.306921222  -0.512694334   0.431259518
  C    2.721161088   1.765706155  -0.169626570
