19
charge=1 charge_a=1 charge_b=0 selection_a=1-10 selection_b=11-19 scaling=0.8 benchmark_Eint=-23.197 benchmark_unit=kcal/mol group=NHk-O
  N   -1.680448891   0.744830915  -0.335191555
  C   -2.190411302  -0.455973451  -0.094953185
  N   -1.368031766  -1.450366722   0.219899027
  N   -3.509191876  -0.664244489  -0.167801637
  H   -0.668454567   0.858474530  -0.268049544
  H   -2.266037033   1.522787222  -0.575670539
  H   -0.370833620  -1.257177633   0.266644511
  H   -1.711861930  -2.373317944   0.408957309
  H   -4.141651233   0.077914060  -0.405020561
  H   -3.905486009  -1.568561446   0.011786337
  H    3.776402262   0.007032673   0.350424759
  H    2.593474734  -1.235484208   0.538141410
  H    1.882975458   2.255040042  -1.273444808
  H    1.724738158   2.663530625   0.430998009
  H    3.299148911   2.171735508  -0.213481875
  O    0.646958986   0.228330428   0.005663322
  C    1.833468860   0.583412608   0.031102588
  N    2.813641140  -0.276390295   0.328617194
  C    2.227881006   2.002010194  -0.272268894
