22
charge=1 charge_a=1 charge_b=0 selection_a=1-14 selection_b=15-22 scaling=2.0 benchmark_Eint=-7.844 benchmark_unit=kcal/mol group=NHk-O
  C    0.929048510  -1.190929560  -2.140703908
  N   -0.107011514  -0.183477542  -1.775867337
  H   -0.074781141  -0.050508839  -0.743449558
  C    0.174920201   1.146316869  -2.391004161
  C   -1.481661611  -0.660692668  -2.105905192
  H    1.903008141  -0.821162226  -1.835994944
  H    0.912436370  -1.345768733  -3.215695095
  H    0.709461226  -2.123156572  -1.629921265
  H    1.162373180   1.474013966  -2.082295085
  H   -0.571587939   1.854806411  -2.047608933
  H    0.134122355   1.053332250  -3.472476366
  H   -1.658174263  -1.602696327  -1.596782893
  H   -1.561987008  -0.796795659  -3.180574081
  H   -2.198592900   0.079996407  -1.767497333
  H   -1.371845048   1.886536869   4.332564651
  H    1.413025451  -0.753331802   3.183103148
  H    1.766990035   0.333019339   4.548726137
  H    0.616949723  -0.970005354   4.761182787
  O   -0.507764317   0.834773341   2.482051562
  C   -0.114955358   0.668008741   3.626994682
  O   -0.661078108   1.309536383   4.649341824
  C    0.993424315  -0.243146793   4.042664035
