12
charge=1 charge_a=1 charge_b=0 selection_a=1-5 selection_b=6-12 scaling=2.0 benchmark_Eint=-10.518 benchmark_unit=kcal/mol group=NHk-O
  N   -0.005156717   0.027401505   2.669644732
  H   -0.003019297   0.057513514   1.594149372
  H    0.822944025   0.490411135   3.040976543
  H   -0.003677188  -0.946025893   2.972823075
  H   -0.836842838   0.486776067   3.037470832
  H    0.879597066  -0.129998245  -4.427115731
  H   -0.862871875  -0.127843116  -4.430376191
  H    0.005416950  -1.567498706  -3.810884334
  H    0.006534815   1.244786956  -2.503790628
  C    0.006881873  -0.483856058  -3.871294292
  C    0.005137249   0.144139099  -2.534035572
  O    0.002276491  -0.485623246  -1.487275948
