19
charge=1 charge_a=1 charge_b=0 selection_a=1-10 selection_b=11-19 scaling=0.85 benchmark_Eint=-26.239 benchmark_unit=kcal/mol group=NHk-O
  N   -1.680448891   0.744830915  -0.335191555
  C   -2.190411302  -0.455973451  -0.094953185
  N   -1.368031766  -1.450366722   0.219899027
  N   -3.509191876  -0.664244489  -0.167801637
  H   -0.668454567   0.858474530  -0.268049544
  H   -2.266037033   1.522787222  -0.575670539
  H   -0.370833620  -1.257177633   0.266644511
  H   -1.711861930  -2.373317944   0.408957309
  H   -4.141651233   0.077914060  -0.405020561
  H   -3.905486009  -1.568561446   0.011786337
  H    3.858615609  -0.032351334   0.367531813
  H    2.675688081  -1.274868215   0.555248464
  H    1.965188805   2.215656035  -1.256337754
  H    1.806951505   2.624146618   0.448105063
  H    3.381362258   2.132351501  -0.196374821
  O    0.729172333   0.188946421   0.022770376
  C    1.915682207   0.544028601   0.048209642
  N    2.895854487  -0.315774302   0.345724248
  C    2.310094353   1.962626187  -0.255161840
