20
charge=1 charge_a=1 charge_b=0 selection_a=1-14 selection_b=15-20 scaling=0.85 benchmark_Eint=-12.947 benchmark_unit=kcal/mol group=NHk-O
  C    0.414116098  -1.278379014  -2.193586897
  N   -0.152185619  -0.192862324  -1.338588452
  H    0.171194505  -0.361522404  -0.366528025
  C    0.357804489   1.151710699  -1.741736110
  C   -1.645039635  -0.229238593  -1.315039144
  H    1.497306925  -1.242314596  -2.136534783
  H    0.089641585  -1.124519813  -3.218558349
  H    0.056108794  -2.236034478  -1.829465469
  H    1.442063366   1.144872714  -1.693947771
  H   -0.039505957   1.894400838  -1.057782211
  H    0.031842682   1.362382365  -2.756112439
  H   -1.967108648  -1.205735993  -0.967660126
  H   -2.017558726  -0.050643840  -2.319492138
  H   -2.001658036   0.541497474  -0.639741499
  H   -0.759748486   0.627019631   3.518194387
  H    0.656801695   1.603487154   3.216422005
  H    0.859290853  -0.183550769   3.439843035
  C    0.228218586   0.611898539   3.051478838
  N    0.004844747   0.493442384   1.619588047
  O    0.549668543  -0.456501281   1.102944269
