23
charge=1 charge_a=1 charge_b=0 selection_a=1-14 selection_b=15-23 scaling=1.25 benchmark_Eint=-24.484 benchmark_unit=kcal/mol group=NHk-O
  C    1.176363244  -1.202231274  -1.919947005
  N    0.090428709  -0.206623689  -1.711337033
  H   -0.012513284  -0.048268848  -0.675975097
  C    0.426676448   1.112931575  -2.315856793
  C   -1.223955242  -0.713037086  -2.197499927
  H    2.099077943  -0.810561679  -1.503403277
  H    1.299875834  -1.382893582  -2.984178917
  H    0.908423438  -2.126659390  -1.418031788
  H    1.363439568   1.463977208  -1.894982854
  H   -0.365577217   1.815773989  -2.080315894
  H    0.521210873   1.001038249  -3.392473175
  H   -1.449944385  -1.645750443  -1.690807305
  H   -1.171540994  -0.874863547  -3.270645369
  H   -1.987344921   0.022179723  -1.965762273
  H   -0.746319737   0.905387685   4.302798414
  H   -1.763531163   1.556379129   3.065770844
  H    0.778672216  -1.468861880   2.466779304
  H    1.821091834  -0.053118359   2.361459496
  H    1.049284331  -0.465783363   3.898796059
  O   -0.556733743   0.505905251   1.183436519
  C   -0.256772213   0.382958200   2.378934526
  N   -0.972377992   0.991826073   3.328578974
  C    0.916556105  -0.448557976   2.820862320
