17
charge=1 charge_a=1 charge_b=0 selection_a=1-5 selection_b=6-17 scaling=0.9 benchmark_Eint=-35.217 benchmark_unit=kcal/mol group=NHk-O
  N   -2.041123496   1.328285495  -2.089030747
  H   -1.459924376   2.156768699  -2.198412099
  H   -2.152529334   0.878229328  -2.995399263
  H   -2.957531985   1.608053495  -1.744930148
  H   -1.568140965   0.635238385  -1.379955620
  H    2.662682116   0.528577548   0.220362392
  H    1.797124130   1.316368996   1.566759021
  H    2.274744529   2.268485965   0.134816390
  H   -1.082991549  -1.910498219   1.603773784
  H   -0.217750918  -2.698378316   0.257408742
  H    0.526435335  -2.636998885   1.881476160
  O    0.681333794   1.060865045  -0.182960516
  C    0.018794685  -0.053279421   0.043131223
  O   -1.053210738  -0.262320020  -0.523658506
  O    0.580366438  -0.876507534   0.885923538
  C   -0.110596041  -2.124523810   1.172192225
  C    1.949388112   1.299722411   0.492491063
