22
charge=1 charge_a=1 charge_b=0 selection_a=1-10 selection_b=11-22 scaling=1.0 benchmark_Eint=-30.073 benchmark_unit=kcal/mol group=NHk-O
  C   -3.497542269   0.710807577  -0.650286189
  C   -2.298684118   1.080997940  -0.129442932
  N   -1.411366576   0.058507231  -0.373208489
  H   -0.379472526   0.018696910  -0.099046583
  C   -2.034905912  -0.911575519  -1.021528544
  N   -3.305689594  -0.538068570  -1.201846482
  H   -4.445830156   1.212147913  -0.676820737
  H   -2.012513669   1.977015651   0.386856667
  H   -1.596756705  -1.836981593  -1.346058522
  H   -4.007903516  -1.088892669  -1.669046453
  C    1.857900512   1.646878435   1.334313512
  H    1.523573963   2.341830040   0.565297483
  H    2.766953768   2.036393252   1.784456656
  H    1.085292584   1.591148480   2.099866005
  C    2.037201732   0.285449791   0.719500499
  O    1.097062763  -0.307918775   0.161487091
  N    3.244006298  -0.272613275   0.790214350
  H    3.980256909   0.234358326   1.248274972
  C    3.539988569  -1.585875147   0.232150046
  H    2.919168678  -2.346938076   0.699646166
  H    3.353952116  -1.594665499  -0.839506962
  H    4.584765405  -1.812145993   0.416698519
