23
charge=1 charge_a=1 charge_b=0 selection_a=1-10 selection_b=11-23 scaling=1.5 benchmark_Eint=-10.724 benchmark_unit=kcal/mol group=NHk-O
  C   -2.788826418  -0.106968193  -1.724400596
  C   -1.607361032   0.066753093  -1.078892525
  N   -1.875420468   0.000184021   0.271149080
  H   -1.165323455   0.101694354   1.018054655
  C   -3.171333065  -0.207255995   0.458218754
  N   -3.745225617  -0.275418296  -0.743998668
  H   -3.028364012  -0.127293195  -2.770201886
  H   -0.612087910   0.218954864  -1.450583339
  H   -3.671258045  -0.304779627   1.404061234
  H   -4.728783543  -0.428646997  -0.902716887
  H    1.537806776  -1.818486480   1.068208712
  H    4.759269488  -0.102491320  -1.187839447
  H    3.276434861  -2.019107384  -0.689166210
  H    2.733338967   2.229719928   1.782443544
  H    1.154384975   1.022536326   3.046757472
  H    4.494775196   2.013504660   0.065602310
  C    3.989911623  -0.011157744  -0.436132667
  C    3.153706766  -1.085952102  -0.159116407
  C    2.169998750  -0.978874646   0.816993430
  C    2.030354589   0.218930858   1.501313214
  C    2.854753786   1.302072438   1.238634227
  C    3.842496528   1.177090572   0.268763065
  O    0.992402155   0.301004152   2.430368528
