17
charge=1 charge_a=1 charge_b=0 selection_a=1-10 selection_b=11-17 scaling=0.8 benchmark_Eint=-11.911 benchmark_unit=kcal/mol group=NHk-O
  N   -1.786111923   0.590129888  -0.040811353
  C   -2.024921712  -0.696799479  -0.263887590
  N   -1.011810548  -1.552973326  -0.323514093
  N   -3.278468515  -1.128148630  -0.427291735
  H   -0.837002790   0.928377147   0.083905788
  H   -2.536672588   1.255032158   0.007697558
  H   -0.055286478  -1.235275995  -0.201435397
  H   -1.169103218  -2.530100213  -0.491655197
  H   -4.057765114  -0.496634037  -0.385692747
  H   -3.479563581  -2.097016386  -0.596702235
  H    2.999090400   2.043301627   0.073877760
  H    3.139564458   0.941402064   1.469856576
  H    3.609521094   0.353422490  -0.147610760
  C    2.948597287   1.012452185   0.401190576
  N    1.550981601   0.534713143   0.194454296
  O    1.376809715  -0.657520072  -0.005397101
  O    0.649367448   1.356023932   0.259579872
