23
charge=1 charge_a=1 charge_b=0 selection_a=1-14 selection_b=15-23 scaling=2.0 benchmark_Eint=-12.093 benchmark_unit=kcal/mol group=NHk-O
  C    1.176363244  -1.202231274  -1.919947005
  N    0.090428709  -0.206623689  -1.711337033
  H   -0.012513284  -0.048268848  -0.675975097
  C    0.426676448   1.112931575  -2.315856793
  C   -1.223955242  -0.713037086  -2.197499927
  H    2.099077943  -0.810561679  -1.503403277
  H    1.299875834  -1.382893582  -2.984178917
  H    0.908423438  -2.126659390  -1.418031788
  H    1.363439568   1.463977208  -1.894982854
  H   -0.365577217   1.815773989  -2.080315894
  H    0.521210873   1.001038249  -3.392473175
  H   -1.449944385  -1.645750443  -1.690807305
  H   -1.171540994  -0.874863547  -3.270645369
  H   -1.987344921   0.022179723  -1.965762273
  H   -1.072852012   1.237892144   5.418445384
  H   -2.090063438   1.888883588   4.181417814
  H    0.452139941  -1.136357421   3.582426274
  H    1.494559559   0.279386100   3.477106466
  H    0.722752056  -0.133278904   5.014443029
  O   -0.883266018   0.838409710   2.299083489
  C   -0.583304488   0.715462659   3.494581496
  N   -1.298910267   1.324330532   4.444225944
  C    0.590023830  -0.116053517   3.936509290
