19
charge=1 charge_a=1 charge_b=0 selection_a=1-10 selection_b=11-19 scaling=0.8 benchmark_Eint=-8.418 benchmark_unit=kcal/mol group=NHk-O
  N   -1.929133822   0.459037490  -0.609948850
  C   -2.197525229  -0.837009658  -0.489162129
  N   -1.234922594  -1.664072962  -0.094592791
  N   -3.417540928  -1.301795048  -0.760570169
  H   -0.998437116   0.793712358  -0.399728528
  H   -2.628612518   1.115653749  -0.905286395
  H   -0.315785310  -1.293907653   0.106887082
  H   -1.397721425  -2.649144974   0.009146280
  H   -4.155607783  -0.689903545  -1.059605365
  H   -3.636180469  -2.278200056  -0.674506750
  H    2.881093096   1.434075555   2.022318449
  H    3.609634706   1.041037179  -0.577934839
  H    0.280244383   0.613163676   2.150254983
  H    1.381509268   0.019036035  -1.780291347
  C    2.651469646   0.834423419  -0.136456010
  C    2.268245610   1.041183654   1.231288790
  C    0.984778921   0.647318403   1.340656710
  O    0.525123079   0.199489032   0.116940357
  C    1.576318388   0.328180687  -0.770606198
