16
charge=1 charge_a=1 charge_b=0 selection_a=1-10 selection_b=11-16 scaling=1.5 benchmark_Eint=-10.687 benchmark_unit=kcal/mol group=NHk-O
  N   -1.171055239   0.883129879  -0.190652445
  C   -1.704290407  -0.334625344  -0.191792459
  N   -0.921194994  -1.395663920  -0.039211169
  N   -3.021699643  -0.488814065  -0.345769017
  H   -0.167974861   1.014121178  -0.074331560
  H   -1.747525618   1.697143282  -0.304753574
  H    0.082349306  -1.283235598   0.078306946
  H   -1.301823063  -2.324766949  -0.036922587
  H   -3.630755306   0.300698603  -0.462391235
  H   -3.444135661  -1.399647346  -0.349245911
  H    3.870568478   2.375982630   1.233434695
  H    4.083980327   2.283883996  -0.502770637
  H    4.803689338   0.989480728   0.538011556
  C    3.974429905   1.678022698   0.399564596
  N    2.701730943   0.978099524   0.280249359
  O    2.766525578  -0.222475280   0.351879208
