22
charge=1 charge_a=1 charge_b=0 selection_a=1-14 selection_b=15-22 scaling=1.25 benchmark_Eint=-17.328 benchmark_unit=kcal/mol group=NHk-O
  C    0.929048510  -1.190929560  -2.140703908
  N   -0.107011514  -0.183477542  -1.775867337
  H   -0.074781141  -0.050508839  -0.743449558
  C    0.174920201   1.146316869  -2.391004161
  C   -1.481661611  -0.660692668  -2.105905192
  H    1.903008141  -0.821162226  -1.835994944
  H    0.912436370  -1.345768733  -3.215695095
  H    0.709461226  -2.123156572  -1.629921265
  H    1.162373180   1.474013966  -2.082295085
  H   -0.571587939   1.854806411  -2.047608933
  H    0.134122355   1.053332250  -3.472476366
  H   -1.658174263  -1.602696327  -1.596782893
  H   -1.561987008  -0.796795659  -3.180574081
  H   -2.198592900   0.079996407  -1.767497333
  H   -1.209476357   1.554556052   3.123001731
  H    1.575394142  -1.085312620   1.973540228
  H    1.929358726   0.001038521   3.339163217
  H    0.779318414  -1.301986172   3.551619867
  O   -0.345395626   0.502792524   1.272488642
  C    0.047413333   0.336027924   2.417431762
  O   -0.498709417   0.977555566   3.439778904
  C    1.155793006  -0.575127610   2.833101115
