20
charge=1 charge_a=1 charge_b=0 selection_a=1-14 selection_b=15-20 scaling=0.8 benchmark_Eint=-9.783 benchmark_unit=kcal/mol group=NHk-O
  C    0.414116098  -1.278379014  -2.193586897
  N   -0.152185619  -0.192862324  -1.338588452
  H    0.171194505  -0.361522404  -0.366528025
  C    0.357804489   1.151710699  -1.741736110
  C   -1.645039635  -0.229238593  -1.315039144
  H    1.497306925  -1.242314596  -2.136534783
  H    0.089641585  -1.124519813  -3.218558349
  H    0.056108794  -2.236034478  -1.829465469
  H    1.442063366   1.144872714  -1.693947771
  H   -0.039505957   1.894400838  -1.057782211
  H    0.031842682   1.362382365  -2.756112439
  H   -1.967108648  -1.205735993  -0.967660126
  H   -2.017558726  -0.050643840  -2.319492138
  H   -2.001658036   0.541497474  -0.639741499
  H   -0.782011665   0.632606624   3.431754840
  H    0.634538516   1.609074147   3.129982458
  H    0.837027674  -0.177963776   3.353403488
  C    0.205955407   0.617485532   2.965039291
  N   -0.017418432   0.499029377   1.533148500
  O    0.527405364  -0.450914288   1.016504722
