19
charge=1 charge_a=1 charge_b=0 selection_a=1-10 selection_b=11-19 scaling=0.95 benchmark_Eint=-13.878 benchmark_unit=kcal/mol group=NHk-O
  N   -1.929133822   0.459037490  -0.609948850
  C   -2.197525229  -0.837009658  -0.489162129
  N   -1.234922594  -1.664072962  -0.094592791
  N   -3.417540928  -1.301795048  -0.760570169
  H   -0.998437116   0.793712358  -0.399728528
  H   -2.628612518   1.115653749  -0.905286395
  H   -0.315785310  -1.293907653   0.106887082
  H   -1.397721425  -2.649144974   0.009146280
  H   -4.155607783  -0.689903545  -1.059605365
  H   -3.636180469  -2.278200056  -0.674506750
  H    3.160941225   1.540497770   2.084658973
  H    3.889482835   1.147459394  -0.515594315
  H    0.560092512   0.719585891   2.212595507
  H    1.661357397   0.125458250  -1.717950823
  C    2.931317775   0.940845634  -0.074115486
  C    2.548093739   1.147605869   1.293629314
  C    1.264627050   0.753740618   1.402997234
  O    0.804971208   0.305911247   0.179280881
  C    1.856166517   0.434602902  -0.708265674
