12
charge=1 charge_a=1 charge_b=0 selection_a=1-5 selection_b=6-12 scaling=0.8 benchmark_Eint=-17.878 benchmark_unit=kcal/mol group=NHk-O
  N   -0.005156717   0.027401505   2.669644732
  H   -0.003019297   0.057513514   1.594149372
  H    0.822944025   0.490411135   3.040976543
  H   -0.003677188  -0.946025893   2.972823075
  H   -0.836842838   0.486776067   3.037470832
  H    0.876419593   0.195883811  -2.578260539
  H   -0.866049348   0.198038940  -2.581520999
  H    0.002239477  -1.241616650  -1.962029142
  H    0.003357342   1.570669012  -0.654935436
  C    0.003704400  -0.157974002  -2.022439100
  C    0.001959776   0.470021155  -0.685180380
  O   -0.000900982  -0.159741190   0.361579244
