21
charge=1 charge_a=1 charge_b=0 selection_a=1-14 selection_b=15-21 scaling=0.95 benchmark_Eint=-19.651 benchmark_unit=kcal/mol group=NHk-O
  C    0.407297876  -1.425689419  -1.753134350
  N   -0.251668943  -0.125950459  -1.430213993
  H   -0.225609415  -0.027559403  -0.395900908
  C    0.511053642   1.028749891  -1.989441119
  C   -1.678694242  -0.107233108  -1.862284186
  H    1.419772037  -1.409135164  -1.363565032
  H    0.421491694  -1.557399109  -2.831192226
  H   -0.153709233  -2.229354843  -1.287146478
  H    1.521714963   1.002077583  -1.595737578
  H    0.022984323   1.950512778  -1.689613309
  H    0.527544094   0.951063172  -3.072701771
  H   -2.200848934  -0.933521956  -1.390440692
  H   -1.723563199  -0.209369062  -2.942707432
  H   -2.126127939   0.834507077  -1.560685042
  H    0.559917800  -0.501189624   4.174805921
  H    0.640186173   1.232740893   4.008202048
  H    1.848532008   0.218664762   3.162113114
  H   -1.190666350   0.300236842   2.545403602
  C    0.810614752   0.296372168   3.470618385
  C   -0.114892827   0.228137680   2.314906938
  O    0.242481801   0.100287277   1.158490350
