19
charge=1 charge_a=1 charge_b=0 selection_a=1-10 selection_b=11-19 scaling=1.05 benchmark_Eint=-13.889 benchmark_unit=kcal/mol group=NHk-O
  N   -1.929133822   0.459037490  -0.609948850
  C   -2.197525229  -0.837009658  -0.489162129
  N   -1.234922594  -1.664072962  -0.094592791
  N   -3.417540928  -1.301795048  -0.760570169
  H   -0.998437116   0.793712358  -0.399728528
  H   -2.628612518   1.115653749  -0.905286395
  H   -0.315785310  -1.293907653   0.106887082
  H   -1.397721425  -2.649144974   0.009146280
  H   -4.155607783  -0.689903545  -1.059605365
  H   -3.636180469  -2.278200056  -0.674506750
  H    3.347506645   1.611445912   2.126219323
  H    4.076048255   1.218407536  -0.474033965
  H    0.746657932   0.790534033   2.254155857
  H    1.847922817   0.196406392  -1.676390473
  C    3.117883195   1.011793776  -0.032555136
  C    2.734659159   1.218554011   1.335189664
  C    1.451192470   0.824688760   1.444557584
  O    0.991536628   0.376859389   0.220841231
  C    2.042731937   0.505551044  -0.666705324
