12
charge=1 charge_a=1 charge_b=0 selection_a=1-5 selection_b=6-12 scaling=1.25 benchmark_Eint=-22.742 benchmark_unit=kcal/mol group=NHk-O
  N   -0.005156717   0.027401505   2.669644732
  H   -0.003019297   0.057513514   1.594149372
  H    0.822944025   0.490411135   3.040976543
  H   -0.003677188  -0.946025893   2.972823075
  H   -0.836842838   0.486776067   3.037470832
  H    0.877611146   0.073678040  -3.271581236
  H   -0.864857796   0.075833169  -3.274841696
  H    0.003431030  -1.363822421  -2.655349839
  H    0.004548894   1.448463241  -1.348256133
  C    0.004895952  -0.280179773  -2.715759797
  C    0.003151328   0.347815384  -1.378501077
  O    0.000290570  -0.281946961  -0.331741453
