23
charge=1 charge_a=1 charge_b=0 selection_a=1-10 selection_b=11-23 scaling=1.0 benchmark_Eint=-17.640 benchmark_unit=kcal/mol group=NHk-O
  C   -2.788826418  -0.106968193  -1.724400596
  C   -1.607361032   0.066753093  -1.078892525
  N   -1.875420468   0.000184021   0.271149080
  H   -1.165323455   0.101694354   1.018054655
  C   -3.171333065  -0.207255995   0.458218754
  N   -3.745225617  -0.275418296  -0.743998668
  H   -3.028364012  -0.127293195  -2.770201886
  H   -0.612087910   0.218954864  -1.450583339
  H   -3.671258045  -0.304779627   1.404061234
  H   -4.728783543  -0.428646997  -0.902716887
  H    0.818564906  -1.884923080   0.597437421
  H    4.040027618  -0.168927919  -1.658610738
  H    2.557192991  -2.085543984  -1.159937501
  H    2.014097097   2.163283329   1.311672253
  H    0.435143105   0.956099726   2.575986181
  H    3.775533326   1.947068060  -0.405168981
  C    3.270669753  -0.077594344  -0.906903958
  C    2.434464896  -1.152388702  -0.629887698
  C    1.450756880  -1.045311246   0.346222139
  C    1.311112719   0.152494259   1.030541923
  C    2.135511916   1.235635839   0.767862936
  C    3.123254658   1.110653973  -0.202008226
  O    0.273160285   0.234567553   1.959597237
