16
charge=1 charge_a=1 charge_b=0 selection_a=1-10 selection_b=11-16 scaling=1.1 benchmark_Eint=-17.076 benchmark_unit=kcal/mol group=NHk-O
  N   -1.171055239   0.883129879  -0.190652445
  C   -1.704290407  -0.334625344  -0.191792459
  N   -0.921194994  -1.395663920  -0.039211169
  N   -3.021699643  -0.488814065  -0.345769017
  H   -0.167974861   1.014121178  -0.074331560
  H   -1.747525618   1.697143282  -0.304753574
  H    0.082349306  -1.283235598   0.078306946
  H   -1.301823063  -2.324766949  -0.036922587
  H   -3.630755306   0.300698603  -0.462391235
  H   -3.444135661  -1.399647346  -0.349245911
  H    3.154788139   2.093113212   1.160482092
  H    3.368199988   2.001014578  -0.575723240
  H    4.087908999   0.706611310   0.465058953
  C    3.258649566   1.395153280   0.326611993
  N    1.985950604   0.695230106   0.207296756
  O    2.050745239  -0.505344698   0.278926605
