23
charge=1 charge_a=1 charge_b=0 selection_a=1-14 selection_b=15-23 scaling=1.0 benchmark_Eint=-28.028 benchmark_unit=kcal/mol group=NHk-O
  C    1.176363244  -1.202231274  -1.919947005
  N    0.090428709  -0.206623689  -1.711337033
  H   -0.012513284  -0.048268848  -0.675975097
  C    0.426676448   1.112931575  -2.315856793
  C   -1.223955242  -0.713037086  -2.197499927
  H    2.099077943  -0.810561679  -1.503403277
  H    1.299875834  -1.382893582  -2.984178917
  H    0.908423438  -2.126659390  -1.418031788
  H    1.363439568   1.463977208  -1.894982854
  H   -0.365577217   1.815773989  -2.080315894
  H    0.521210873   1.001038249  -3.392473175
  H   -1.449944385  -1.645750443  -1.690807305
  H   -1.171540994  -0.874863547  -3.270645369
  H   -1.987344921   0.022179723  -1.965762273
  H   -0.637475645   0.794552865   3.930916091
  H   -1.654687071   1.445544309   2.693888521
  H    0.887516308  -1.579696700   2.094896981
  H    1.929935926  -0.163953179   1.989577173
  H    1.158128423  -0.576618183   3.526913736
  O   -0.447889651   0.395070431   0.811554196
  C   -0.147928121   0.272123380   2.007052203
  N   -0.863533900   0.880991253   2.956696651
  C    1.025400197  -0.559392796   2.448979997
