12
charge=1 charge_a=1 charge_b=0 selection_a=1-5 selection_b=6-12 scaling=1.05 benchmark_Eint=-24.690 benchmark_unit=kcal/mol group=NHk-O
  N   -1.376678580   1.495225042  -1.670772311
  H   -0.661760795   1.276850866  -0.919599616
  H   -0.920645618   1.903098735  -2.486251104
  H   -2.075729519   2.146928368  -1.315885175
  H   -1.830894748   0.621079448  -1.936966169
  H    1.093122441  -0.560823097   2.461314770
  H    1.122128116  -2.112654594   1.543880108
  H    2.330188540  -0.815383238   1.213776436
  C    1.313129630  -1.048397691   1.515853810
  N    0.408232596  -0.447494640   0.496215487
  O    0.491188320   0.776182939   0.324820639
  O   -0.359610104  -1.152785428  -0.117012579
