23
charge=1 charge_a=1 charge_b=0 selection_a=1-10 selection_b=11-23 scaling=0.8 benchmark_Eint=-11.185 benchmark_unit=kcal/mol group=NHk-O
  C   -2.788826418  -0.106968193  -1.724400596
  C   -1.607361032   0.066753093  -1.078892525
  N   -1.875420468   0.000184021   0.271149080
  H   -1.165323455   0.101694354   1.018054655
  C   -3.171333065  -0.207255995   0.458218754
  N   -3.745225617  -0.275418296  -0.743998668
  H   -3.028364012  -0.127293195  -2.770201886
  H   -0.612087910   0.218954864  -1.450583339
  H   -3.671258045  -0.304779627   1.404061234
  H   -4.728783543  -0.428646997  -0.902716887
  H    0.530868158  -1.911497720   0.409128905
  H    3.752330870  -0.195502559  -1.846919254
  H    2.269496243  -2.112118624  -1.348246017
  H    1.726400349   2.136708689   1.123363737
  H    0.147446357   0.929525086   2.387677665
  H    3.487836578   1.920493420  -0.593477497
  C    2.982973005  -0.104168984  -1.095212474
  C    2.146768148  -1.178963342  -0.818196214
  C    1.163060132  -1.071885886   0.157913623
  C    1.023415971   0.125919619   0.842233407
  C    1.847815168   1.209061199   0.579554420
  C    2.835557910   1.084079333  -0.390316742
  O   -0.014536463   0.207992913   1.771288721
