19
charge=1 charge_a=1 charge_b=0 selection_a=1-10 selection_b=11-19 scaling=1.25 benchmark_Eint=-25.842 benchmark_unit=kcal/mol group=NHk-O
  N   -1.680448891   0.744830915  -0.335191555
  C   -2.190411302  -0.455973451  -0.094953185
  N   -1.368031766  -1.450366722   0.219899027
  N   -3.509191876  -0.664244489  -0.167801637
  H   -0.668454567   0.858474530  -0.268049544
  H   -2.266037033   1.522787222  -0.575670539
  H   -0.370833620  -1.257177633   0.266644511
  H   -1.711861930  -2.373317944   0.408957309
  H   -4.141651233   0.077914060  -0.405020561
  H   -3.905486009  -1.568561446   0.011786337
  H    4.516322385  -0.347423385   0.504388246
  H    3.333394857  -1.589940266   0.692104896
  H    2.622895581   1.900583984  -1.119481322
  H    2.464658281   2.309074567   0.584961496
  H    4.039069034   1.817279450  -0.059518388
  O    1.386879109  -0.126125630   0.159626808
  C    2.573388983   0.228956550   0.185066074
  N    3.553561263  -0.630846353   0.482580680
  C    2.967801129   1.647554136  -0.118305408
