19
charge=1 charge_a=1 charge_b=0 selection_a=1-10 selection_b=11-19 scaling=1.25 benchmark_Eint=-11.234 benchmark_unit=kcal/mol group=NHk-O
  N   -1.929133822   0.459037490  -0.609948850
  C   -2.197525229  -0.837009658  -0.489162129
  N   -1.234922594  -1.664072962  -0.094592791
  N   -3.417540928  -1.301795048  -0.760570169
  H   -0.998437116   0.793712358  -0.399728528
  H   -2.628612518   1.115653749  -0.905286395
  H   -0.315785310  -1.293907653   0.106887082
  H   -1.397721425  -2.649144974   0.009146280
  H   -4.155607783  -0.689903545  -1.059605365
  H   -3.636180469  -2.278200056  -0.674506750
  H    3.720637484   1.753342198   2.209340022
  H    4.449179094   1.360303822  -0.390913266
  H    1.119788771   0.932430319   2.337276556
  H    2.221053656   0.338302678  -1.593269774
  C    3.491014034   1.153690062   0.050565563
  C    3.107789998   1.360450297   1.418310363
  C    1.824323309   0.966585046   1.527678283
  O    1.364667467   0.518755675   0.303961930
  C    2.415862776   0.647447330  -0.583584625
