17
charge=1 charge_a=1 charge_b=0 selection_a=1-10 selection_b=11-17 scaling=0.85 benchmark_Eint=-16.46 benchmark_unit=kcal/mol group=NHk-O
  N   -1.786111923   0.590129888  -0.040811353
  C   -2.024921712  -0.696799479  -0.263887590
  N   -1.011810548  -1.552973326  -0.323514093
  N   -3.278468515  -1.128148630  -0.427291735
  H   -0.837002790   0.928377147   0.083905788
  H   -2.536672588   1.255032158   0.007697558
  H   -0.055286478  -1.235275995  -0.201435397
  H   -1.169103218  -2.530100213  -0.491655197
  H   -4.057765114  -0.496634037  -0.385692747
  H   -3.479563581  -2.097016386  -0.596702235
  H    3.090389259   2.074753802   0.085506098
  H    3.230863317   0.972854239   1.481484914
  H    3.700819953   0.384874665  -0.135982422
  C    3.039896146   1.043904360   0.412818914
  N    1.642280460   0.566165318   0.206082634
  O    1.468108574  -0.626067897   0.006231237
  O    0.740666307   1.387476107   0.271208210
