17
charge=1 charge_a=1 charge_b=0 selection_a=1-10 selection_b=11-17 scaling=1.25 benchmark_Eint=-17.176 benchmark_unit=kcal/mol group=NHk-O
  N   -1.786111923   0.590129888  -0.040811353
  C   -2.024921712  -0.696799479  -0.263887590
  N   -1.011810548  -1.552973326  -0.323514093
  N   -3.278468515  -1.128148630  -0.427291735
  H   -0.837002790   0.928377147   0.083905788
  H   -2.536672588   1.255032158   0.007697558
  H   -0.055286478  -1.235275995  -0.201435397
  H   -1.169103218  -2.530100213  -0.491655197
  H   -4.057765114  -0.496634037  -0.385692747
  H   -3.479563581  -2.097016386  -0.596702235
  H    3.820780126   2.326371209   0.178532807
  H    3.961254184   1.224471646   1.574511623
  H    4.431210820   0.636492072  -0.042955713
  C    3.770287013   1.295521767   0.505845623
  N    2.372671327   0.817782725   0.299109343
  O    2.198499441  -0.374450490   0.099257946
  O    1.471057174   1.639093514   0.364234919
