23
charge=1 charge_a=1 charge_b=0 selection_a=1-10 selection_b=11-23 scaling=1.25 benchmark_Eint=-14.651 benchmark_unit=kcal/mol group=NHk-O
  C   -2.788826418  -0.106968193  -1.724400596
  C   -1.607361032   0.066753093  -1.078892525
  N   -1.875420468   0.000184021   0.271149080
  H   -1.165323455   0.101694354   1.018054655
  C   -3.171333065  -0.207255995   0.458218754
  N   -3.745225617  -0.275418296  -0.743998668
  H   -3.028364012  -0.127293195  -2.770201886
  H   -0.612087910   0.218954864  -1.450583339
  H   -3.671258045  -0.304779627   1.404061234
  H   -4.728783543  -0.428646997  -0.902716887
  H    1.178185841  -1.851704780   0.832823066
  H    4.399648553  -0.135709619  -1.423225092
  H    2.916813926  -2.052325684  -0.924551856
  H    2.373718032   2.196501629   1.547057898
  H    0.794764040   0.989318026   2.811371826
  H    4.135154261   1.980286360  -0.169783336
  C    3.630290688  -0.044376044  -0.671518312
  C    2.794085831  -1.119170402  -0.394502052
  C    1.810377815  -1.012092946   0.581607784
  C    1.670733654   0.185712559   1.265927568
  C    2.495132851   1.268854139   1.003248582
  C    3.482875593   1.143872273   0.033377420
  O    0.632781220   0.267785853   2.194982882
