22
charge=1 charge_a=1 charge_b=0 selection_a=1-14 selection_b=15-22 scaling=1.0 benchmark_Eint=-20.213 benchmark_unit=kcal/mol group=NHk-O
  C    0.929048510  -1.190929560  -2.140703908
  N   -0.107011514  -0.183477542  -1.775867337
  H   -0.074781141  -0.050508839  -0.743449558
  C    0.174920201   1.146316869  -2.391004161
  C   -1.481661611  -0.660692668  -2.105905192
  H    1.903008141  -0.821162226  -1.835994944
  H    0.912436370  -1.345768733  -3.215695095
  H    0.709461226  -2.123156572  -1.629921265
  H    1.162373180   1.474013966  -2.082295085
  H   -0.571587939   1.854806411  -2.047608933
  H    0.134122355   1.053332250  -3.472476366
  H   -1.658174263  -1.602696327  -1.596782893
  H   -1.561987008  -0.796795659  -3.180574081
  H   -2.198592900   0.079996407  -1.767497333
  H   -1.155353460   1.443895779   2.719814091
  H    1.629517039  -1.195972892   1.570352588
  H    1.983481623  -0.109621751   2.935975577
  H    0.833441311  -1.412646444   3.148432227
  O   -0.291272729   0.392132251   0.869301002
  C    0.101536230   0.225367651   2.014244122
  O   -0.444586520   0.866895293   3.036591264
  C    1.209915903  -0.685787883   2.429913475
