12
charge=1 charge_a=1 charge_b=0 selection_a=1-5 selection_b=6-12 scaling=0.9 benchmark_Eint=-23.487 benchmark_unit=kcal/mol group=NHk-O
  N   -1.376678580   1.495225042  -1.670772311
  H   -0.661760795   1.276850866  -0.919599616
  H   -0.920645618   1.903098735  -2.486251104
  H   -2.075729519   2.146928368  -1.315885175
  H   -1.830894748   0.621079448  -1.936966169
  H    0.928415424  -0.489299107   2.283540448
  H    0.957421099  -2.041130604   1.366105786
  H    2.165481523  -0.743859248   1.036002114
  C    1.148422613  -0.976873701   1.338079488
  N    0.243525579  -0.375970650   0.318441165
  O    0.326481303   0.847706929   0.147046317
  O   -0.524317121  -1.081261438  -0.294786901
