23
charge=1 charge_a=1 charge_b=0 selection_a=1-14 selection_b=15-23 scaling=0.8 benchmark_Eint=-20.109 benchmark_unit=kcal/mol group=NHk-O
  C    1.176363244  -1.202231274  -1.919947005
  N    0.090428709  -0.206623689  -1.711337033
  H   -0.012513284  -0.048268848  -0.675975097
  C    0.426676448   1.112931575  -2.315856793
  C   -1.223955242  -0.713037086  -2.197499927
  H    2.099077943  -0.810561679  -1.503403277
  H    1.299875834  -1.382893582  -2.984178917
  H    0.908423438  -2.126659390  -1.418031788
  H    1.363439568   1.463977208  -1.894982854
  H   -0.365577217   1.815773989  -2.080315894
  H    0.521210873   1.001038249  -3.392473175
  H   -1.449944385  -1.645750443  -1.690807305
  H   -1.171540994  -0.874863547  -3.270645369
  H   -1.987344921   0.022179723  -1.965762273
  H   -0.550400372   0.705885009   3.633410232
  H   -1.567611798   1.356876453   2.396382662
  H    0.974591581  -1.668364556   1.797391122
  H    2.017011199  -0.252621035   1.692071314
  H    1.245203696  -0.665286039   3.229407877
  O   -0.360814378   0.306402575   0.514048337
  C   -0.060852848   0.183455524   1.709546344
  N   -0.776458627   0.792323397   2.659190792
  C    1.112475470  -0.648060652   2.151474138
