20
charge=1 charge_a=1 charge_b=0 selection_a=1-10 selection_b=11-20 scaling=1.1 benchmark_Eint=-21.527 benchmark_unit=kcal/mol group=NHk-O
  C   -3.167180575  -0.588273807  -0.772306193
  C   -1.851108021  -0.774012663  -1.050491518
  N   -1.134380285  -0.085828452  -0.098201041
  H   -0.094331637  -0.016480546  -0.014375535
  C   -1.971762638   0.505347377   0.740634761
  N   -3.214108972   0.213109063   0.349185427
  H   -4.052671449  -0.946703307  -1.261019126
  H   -1.376351158  -1.330951994  -1.835176159
  H   -1.697491389   1.110898374   1.584423744
  H   -4.052201635   0.532899629   0.808414803
  H    3.932034794  -0.040279160  -1.532165939
  H    2.330711983  -0.820765917  -1.599340610
  H    3.649793773  -1.512131189  -0.632103531
  H    3.426340355   1.191900464   2.017595200
  H    4.332536351   1.587199920   0.541251941
  C    3.178416798  -0.584304563  -0.963251565
  C    2.757447129   0.202318486   0.241983628
  O    1.578143413   0.364991014   0.526320515
  C    3.836616730   0.788565035   1.097734453
  H    4.601222520   0.042840087   1.315597398
