12
charge=1 charge_a=1 charge_b=0 selection_a=1-5 selection_b=6-12 scaling=1.5 benchmark_Eint=-17.500 benchmark_unit=kcal/mol group=NHk-O
  N   -0.005156717   0.027401505   2.669644732
  H   -0.003019297   0.057513514   1.594149372
  H    0.822944025   0.490411135   3.040976543
  H   -0.003677188  -0.946025893   2.972823075
  H   -0.836842838   0.486776067   3.037470832
  H    0.878273119   0.005785945  -3.656759401
  H   -0.864195822   0.007941074  -3.660019861
  H    0.004093003  -1.431714516  -3.040528004
  H    0.005210868   1.380571146  -1.733434298
  C    0.005557926  -0.348071868  -3.100937962
  C    0.003813302   0.279923289  -1.763679242
  O    0.000952544  -0.349839056  -0.716919618
