24
charge=1 charge_a=1 charge_b=0 selection_a=1-14 selection_b=15-24 scaling=0.95 benchmark_Eint=-17.64 benchmark_unit=kcal/mol group=NHk-N
  C    0.220827833  -1.406243656  -1.849436665
  N   -0.304129145  -0.078923862  -1.423052794
  H   -0.174804445  -0.011491565  -0.371631517
  C    0.461844770   1.042126210  -2.035990576
  C   -1.764977019   0.044507536  -1.690445024
  H    1.274063632  -1.468281406  -1.594405536
  H    0.094102308  -1.514109844  -2.922940912
  H   -0.328782092  -2.185610659  -1.330907620
  H    1.510765626   0.936380418  -1.777574004
  H    0.081440317   1.982074397  -1.648503625
  H    0.342639326   1.010139971  -3.115282571
  H   -2.285642341  -0.760959447  -1.182193909
  H   -1.940623363  -0.019695694  -2.760547084
  H   -2.112054075   1.002574717  -1.316501670
  H   -1.885041162   1.196132868   1.581825890
  H   -1.310413457   0.363791681   3.056123135
  H   -2.058081787  -0.553846466   1.716167642
  H    2.584462716  -0.991445449   1.915126638
  H    2.100306805  -0.177941533   0.394383066
  H    2.756312573   0.746250539   1.781619168
  C   -1.421853854   0.291992788   1.977337667
  N   -0.124498026   0.113237511   1.320048439
  N    0.830909886   0.078026484   2.092117791
  C    2.135410070  -0.097772872   1.482869056
