12
charge=1 charge_a=1 charge_b=0 selection_a=1-5 selection_b=6-12 scaling=1.5 benchmark_Eint=-21.973 benchmark_unit=kcal/mol group=NHk-N
  N   -0.148694578  -3.409567599   0.000000000
  H   -0.087922926  -2.332489211   0.000000000
  H    0.789060482  -3.807883208   0.000000000
  H   -0.645553072  -3.729173637  -0.829916654
  H   -0.645553072  -3.729173637   0.829916654
  H   -1.095196237   3.303693038   0.900143993
  H    0.001733504   4.396371568   0.000000000
  H   -1.095196237   3.303693038  -0.900143993
  C   -0.505672794   3.441296264   0.000000000
  O    0.593396154   2.447250456   0.000000000
  C    0.300264666   1.225119632   0.000000000
  N    0.094464315   0.089302070   0.000000000
