24
charge=1 charge_a=1 charge_b=0 selection_a=1-14 selection_b=15-24 scaling=1.1 benchmark_Eint=-24.791 benchmark_unit=kcal/mol group=NHk-N
  C    1.066522107  -0.797064791  -1.471846725
  N   -0.050836156   0.127154001  -1.142371764
  H   -0.158881150   0.137844238  -0.054577401
  C    0.248240766   1.520624979  -1.566700657
  C   -1.341006045  -0.350932702  -1.706410450
  H    1.974985161  -0.436952936  -0.999003781
  H    1.204464298  -0.833738271  -2.549500923
  H    0.827279289  -1.788523575  -1.099908328
  H    1.173906208   1.842055056  -1.099326305
  H   -0.564881936   2.168292873  -1.252940763
  H    0.350688136   1.559011450  -2.648151695
  H   -1.539008711  -1.352675839  -1.337732619
  H   -1.282428142  -0.364363167  -2.791722268
  H   -2.135057684   0.319240948  -1.391077734
  H    1.788648678   0.010782476   1.993416469
  H    0.945228220   0.583976086   3.433338103
  H    1.126371161   1.650638318   2.031815741
  H   -1.049355495   0.737717768   2.036815372
  H   -1.581020632  -1.548598794   1.797076676
  H    0.145230368  -1.931173366   1.850988862
  H   -0.663915237  -1.317385540   3.293852940
  C    0.957548235   0.621851226   2.342358569
  N   -0.296295456   0.121270632   1.752483182
  C   -0.620356283  -1.242673076   2.205576902
