12
charge=1 charge_a=1 charge_b=0 selection_a=1-5 selection_b=6-12 scaling=0.85 benchmark_Eint=-15.14 benchmark_unit=kcal/mol group=NHk-N
  N    0.111620855  -3.434902061   0.000000000
  H    0.082595615  -2.384721038   0.000000000
  H   -0.358757685  -3.791814028  -0.831749510
  H   -0.358757685  -3.791814028   0.831749510
  H    1.080916213  -3.752497220   0.000000000
  H    1.081134007   2.418616035  -0.893579186
  H    1.081134007   2.418616035   0.893579186
  H   -0.114025787   3.380468914   0.000000000
  C    0.461213899   2.463454043   0.000000000
  N   -0.515288067   1.355573080   0.000000000
  N   -0.165519890   0.212652317   0.000000000
  N    0.031300809  -0.908990348   0.000000000
