14
charge=1 charge_a=1 charge_b=0 selection_a=1-10 selection_b=11-14 scaling=1.5 benchmark_Eint=-11.544 benchmark_unit=kcal/mol group=NHk-N
  N    0.111472806   0.890549260  -0.137669043
  C   -0.835535401  -0.025787896  -0.048320249
  N   -0.495632907  -1.295866651   0.185777108
  N   -2.124696579   0.292895852  -0.187263032
  H    1.112373236   0.630033098  -0.032163801
  H   -0.127067384   1.851435918  -0.307896095
  H    0.470504367  -1.546799713   0.294178739
  H   -1.182373637  -2.024473014   0.253692666
  H   -2.409467672   1.238662473  -0.367712564
  H   -2.848334679  -0.399368043  -0.114161269
  N    3.761187090  -0.116387806   0.255115954
  H    4.141890210  -0.748654599  -0.441258912
  H    4.262680544   0.758519114   0.136878850
  H    4.044717536  -0.476578056   1.160382330
