24
charge=1 charge_a=1 charge_b=0 selection_a=1-14 selection_b=15-24 scaling=2.0 benchmark_Eint=-8.701 benchmark_unit=kcal/mol group=NHk-N
  C    1.066522107  -0.797064791  -1.471846725
  N   -0.050836156   0.127154001  -1.142371764
  H   -0.158881150   0.137844238  -0.054577401
  C    0.248240766   1.520624979  -1.566700657
  C   -1.341006045  -0.350932702  -1.706410450
  H    1.974985161  -0.436952936  -0.999003781
  H    1.204464298  -0.833738271  -2.549500923
  H    0.827279289  -1.788523575  -1.099908328
  H    1.173906208   1.842055056  -1.099326305
  H   -0.564881936   2.168292873  -1.252940763
  H    0.350688136   1.559011450  -2.648151695
  H   -1.539008711  -1.352675839  -1.337732619
  H   -1.282428142  -0.364363167  -2.791722268
  H   -2.135057684   0.319240948  -1.391077734
  H    1.676218792  -0.002777748   3.471920582
  H    0.832798334   0.570415863   4.911842216
  H    1.013941275   1.637078095   3.510319854
  H   -1.161785381   0.724157544   3.515319485
  H   -1.693450518  -1.562159017   3.275580789
  H    0.032800482  -1.944733589   3.329492975
  H   -0.776345123  -1.330945763   4.772357053
  C    0.845118349   0.608291003   3.820862682
  N   -0.408725342   0.107710408   3.230987295
  C   -0.732786169  -1.256233300   3.684081015
