21
charge=1 charge_a=1 charge_b=0 selection_a=1-14 selection_b=15-21 scaling=0.9 benchmark_Eint=-22.06 benchmark_unit=kcal/mol group=NHk-N
  C    0.615256892  -1.265111477  -1.127409964
  N   -0.140093353  -0.014010270  -0.846250376
  H   -0.283535471   0.040229106   0.221072799
  C    0.628953413   1.194152256  -1.250641255
  C   -1.491219251  -0.037814690  -1.469996266
  H    1.574508468  -1.220384144  -0.621230163
  H    0.769136422  -1.362948454  -2.198734517
  H    0.044713750  -2.112566483  -0.759859720
  H    1.585877873   1.192251652  -0.738021950
  H    0.065833919   2.080481439  -0.974770208
  H    0.787955796   1.179971009  -2.325579647
  H   -2.032423135  -0.906768614  -1.108422847
  H   -1.390468181  -0.090801255  -2.550709957
  H   -2.023930177   0.867198382  -1.194455614
  N   -0.432495505   0.110758798   1.741313779
  H   -1.052559944  -0.618682342   2.076421577
  H   -0.870162186   0.983084170   2.017641776
  C    0.885080938  -0.014798686   2.405904960
  H    1.538377429   0.784302564   2.062877697
  H    0.819475105   0.037156664   3.491753551
  H    1.335330432  -0.966801428   2.134235173
