21
charge=1 charge_a=1 charge_b=0 selection_a=1-14 selection_b=15-21 scaling=1.0 benchmark_Eint=-15.332 benchmark_unit=kcal/mol group=NHk-N
  C    0.804517514  -1.373674860  -1.966325078
  N    0.136509233  -0.113416295  -1.529579709
  H    0.228867620  -0.057148468  -0.487999652
  C    0.800427618   1.093821942  -2.101545982
  C   -1.325102898  -0.133281102  -1.831175121
  H    1.853172774  -1.331053942  -1.689751739
  H    0.709858436  -1.470829274  -3.044018597
  H    0.325932218  -2.213921703  -1.473549854
  H    1.847718448   1.088321753  -1.816856016
  H    0.315738135   1.981401506  -1.707683518
  H    0.710131408   1.069535222  -3.183721368
  H   -1.772139335  -0.996720377  -1.348620789
  H   -1.465177778  -0.195727288  -2.906442261
  H   -1.775464221   0.778765321  -1.452151391
  H    1.429105111  -0.972909454   2.812384370
  H    1.719688967   0.782469952   2.710770060
  H    2.356139420  -0.299809881   1.462633188
  C    1.526890405  -0.123415349   2.138530544
  N    0.313916045   0.028577122   1.297887195
  N   -0.734512467   0.241045304   1.924710467
  N   -1.730834464   0.435849480   2.402230973
