12
charge=1 charge_a=1 charge_b=0 selection_a=1-5 selection_b=6-12 scaling=0.8 benchmark_Eint=-11.407 benchmark_unit=kcal/mol group=NHk-N
  N    0.111620855  -3.434902061   0.000000000
  H    0.082595615  -2.384721038   0.000000000
  H   -0.358757685  -3.791814028  -0.831749510
  H   -0.358757685  -3.791814028   0.831749510
  H    1.080916213  -3.752497220   0.000000000
  H    1.084151348   2.331808347  -0.893579186
  H    1.084151348   2.331808347   0.893579186
  H   -0.111008446   3.293661226   0.000000000
  C    0.464231240   2.376646355   0.000000000
  N   -0.512270726   1.268765392   0.000000000
  N   -0.162502549   0.125844629   0.000000000
  N    0.034318150  -0.995798036   0.000000000
