16
charge=1 charge_a=1 charge_b=0 selection_a=1-10 selection_b=11-16 scaling=0.8 benchmark_Eint=-14.768 benchmark_unit=kcal/mol group=NHk-N
  C    0.000143402   0.716618420   2.902324524
  C    0.000211565   1.134698481   1.610513358
  N    0.000054914   0.007390289   0.820776427
  H    0.000057187  -0.006175457  -0.220847748
  C   -0.000106124  -1.070701780   1.590383280
  N   -0.000054205  -0.662015785   2.861054136
  H    0.000216886   1.264568788   3.824906052
  H    0.000355036   2.123748309   1.194201101
  H   -0.000252805  -2.090885866   1.254167652
  H   -0.000146573  -1.273936361   3.661761919
  H   -0.001040138  -0.997536965  -4.599645406
  H    0.887412487   0.537558630  -4.573762886
  H   -0.886786580   0.539120899  -4.573631772
  C   -0.000116363   0.020288116  -4.213521372
  C   -0.000038504  -0.004032531  -2.764466808
  N   -0.000015051  -0.022928361  -1.618341131
