16
charge=1 charge_a=1 charge_b=0 selection_a=1-10 selection_b=11-16 scaling=0.85 benchmark_Eint=-18.402 benchmark_unit=kcal/mol group=NHk-N
  C    0.000143402   0.716618420   2.902324524
  C    0.000211565   1.134698481   1.610513358
  N    0.000054914   0.007390289   0.820776427
  H    0.000057187  -0.006175457  -0.220847748
  C   -0.000106124  -1.070701780   1.590383280
  N   -0.000054205  -0.662015785   2.861054136
  H    0.000216886   1.264568788   3.824906052
  H    0.000355036   2.123748309   1.194201101
  H   -0.000252805  -2.090885866   1.254167652
  H   -0.000146573  -1.273936361   3.661761919
  H   -0.001044653  -0.998584022  -4.686988743
  H    0.887407972   0.536511574  -4.661106223
  H   -0.886791095   0.538073842  -4.660975109
  C   -0.000120878   0.019241060  -4.300864709
  C   -0.000043019  -0.005079588  -2.851810145
  N   -0.000019566  -0.023975418  -1.705684468
