16
charge=1 charge_a=1 charge_b=0 selection_a=1-10 selection_b=11-16 scaling=1.25 benchmark_Eint=-18.91 benchmark_unit=kcal/mol group=NHk-N
  C    0.000143402   0.716618420   2.902324524
  C    0.000211565   1.134698481   1.610513358
  N    0.000054914   0.007390289   0.820776427
  H    0.000057187  -0.006175457  -0.220847748
  C   -0.000106124  -1.070701780   1.590383280
  N   -0.000054205  -0.662015785   2.861054136
  H    0.000216886   1.264568788   3.824906052
  H    0.000355036   2.123748309   1.194201101
  H   -0.000252805  -2.090885866   1.254167652
  H   -0.000146573  -1.273936361   3.661761919
  H   -0.001080772  -1.006960474  -5.385735434
  H    0.887371852   0.528135122  -5.359852914
  H   -0.886827214   0.529697390  -5.359721800
  C   -0.000156998   0.010864608  -4.999611400
  C   -0.000079138  -0.013456040  -3.550556836
  N   -0.000055686  -0.032351870  -2.404431159
