21
charge=1 charge_a=1 charge_b=0 selection_a=1-14 selection_b=15-21 scaling=0.8 benchmark_Eint=-16.12 benchmark_unit=kcal/mol group=NHk-N
  C    0.615256892  -1.265111477  -1.127409964
  N   -0.140093353  -0.014010270  -0.846250376
  H   -0.283535471   0.040229106   0.221072799
  C    0.628953413   1.194152256  -1.250641255
  C   -1.491219251  -0.037814690  -1.469996266
  H    1.574508468  -1.220384144  -0.621230163
  H    0.769136422  -1.362948454  -2.198734517
  H    0.044713750  -2.112566483  -0.759859720
  H    1.585877873   1.192251652  -0.738021950
  H    0.065833919   2.080481439  -0.974770208
  H    0.787955796   1.179971009  -2.325579647
  H   -2.032423135  -0.906768614  -1.108422847
  H   -1.390468181  -0.090801255  -2.550709957
  H   -2.023930177   0.867198382  -1.194455614
  N   -0.415944390   0.102922166   1.572398114
  H   -1.036008829  -0.626518974   1.907505912
  H   -0.853611071   0.975247537   1.848726111
  C    0.901632053  -0.022635318   2.236989295
  H    1.554928544   0.776465932   1.893962032
  H    0.836026220   0.029320031   3.322837886
  H    1.351881547  -0.974638060   1.965319508
