18
charge=1 charge_a=1 charge_b=0 selection_a=1-14 selection_b=15-18 scaling=0.85 benchmark_Eint=-17.478 benchmark_unit=kcal/mol group=NHk-N
  C   -1.232725475  -0.824110325  -0.710762111
  N    0.000002883  -0.382833964  -0.000002908
  H   -0.000020346   0.680565868   0.000000801
  C    0.000838782  -0.824102419   1.422957672
  C    1.231920143  -0.824069586  -0.712203831
  H   -2.100606438  -0.434978574  -0.187467062
  H   -1.268487469  -1.909833223  -0.727796414
  H   -1.211617986  -0.440437029  -1.726051433
  H   -0.888991399  -0.440449181   1.912317298
  H    0.887951247  -0.434948064   1.912921250
  H    0.003989657  -1.909824777   1.462443319
  H    1.212666634  -0.434933925  -1.725455125
  H    1.264582021  -1.909790688  -0.734668366
  H    2.100618866  -0.440375593  -0.186276235
  N   -0.000029186   2.178132131   0.000008570
  H   -0.468012328   2.567590519  -0.811927677
  H   -0.469197990   2.567585622   0.811262359
  H    0.937119064   2.567591583   0.000693927
