12
charge=1 charge_a=1 charge_b=0 selection_a=1-5 selection_b=6-12 scaling=1.05 benchmark_Eint=-31.551 benchmark_unit=kcal/mol group=NHk-N
  N   -0.148694578  -3.409567599   0.000000000
  H   -0.087922926  -2.332489211   0.000000000
  H    0.789060482  -3.807883208   0.000000000
  H   -0.645553072  -3.729173637  -0.829916654
  H   -0.645553072  -3.729173637   0.829916654
  H   -1.149912409   2.577155654   0.900143993
  H   -0.052982668   3.669834184   0.000000000
  H   -1.149912409   2.577155654  -0.900143993
  C   -0.560388966   2.714758879   0.000000000
  O    0.538679982   1.720713072   0.000000000
  C    0.245548494   0.498582248   0.000000000
  N    0.039748143  -0.637235314   0.000000000
