24
charge=1 charge_a=1 charge_b=0 selection_a=1-14 selection_b=15-24 scaling=2.0 benchmark_Eint=-5.407 benchmark_unit=kcal/mol group=NHk-N
  C    0.220827833  -1.406243656  -1.849436665
  N   -0.304129145  -0.078923862  -1.423052794
  H   -0.174804445  -0.011491565  -0.371631517
  C    0.461844770   1.042126210  -2.035990576
  C   -1.764977019   0.044507536  -1.690445024
  H    1.274063632  -1.468281406  -1.594405536
  H    0.094102308  -1.514109844  -2.922940912
  H   -0.328782092  -2.185610659  -1.330907620
  H    1.510765626   0.936380418  -1.777574004
  H    0.081440317   1.982074397  -1.648503625
  H    0.342639326   1.010139971  -3.115282571
  H   -2.285642341  -0.760959447  -1.182193909
  H   -1.940623363  -0.019695694  -2.760547084
  H   -2.112054075   1.002574717  -1.316501670
  H   -1.829439331   1.333991320   3.451577420
  H   -1.254811626   0.501650133   4.925874665
  H   -2.002479956  -0.415988014   3.585919172
  H    2.640064547  -0.853586997   3.784878168
  H    2.155908636  -0.040083081   2.264134596
  H    2.811914404   0.884108991   3.651370698
  C   -1.366252023   0.429851240   3.847089197
  N   -0.068896195   0.251095963   3.189799969
  N    0.886511717   0.215884936   3.961869321
  C    2.191011901   0.040085580   3.352620586
