12
charge=1 charge_a=1 charge_b=0 selection_a=1-5 selection_b=6-12 scaling=1.0 benchmark_Eint=-18.915 benchmark_unit=kcal/mol group=NHk-N
  N    0.111620855  -3.434902061   0.000000000
  H    0.082595615  -2.384721038   0.000000000
  H   -0.358757685  -3.791814028  -0.831749510
  H   -0.358757685  -3.791814028   0.831749510
  H    1.080916213  -3.752497220   0.000000000
  H    1.072081982   2.679039098  -0.893579186
  H    1.072081982   2.679039098   0.893579186
  H   -0.123077812   3.640891977   0.000000000
  C    0.452161874   2.723877106   0.000000000
  N   -0.524340092   1.615996143   0.000000000
  N   -0.174571915   0.473075380   0.000000000
  N    0.022248784  -0.648567285   0.000000000
