24
charge=1 charge_a=1 charge_b=0 selection_a=1-10 selection_b=11-24 scaling=0.8 benchmark_Eint=-18.723 benchmark_unit=kcal/mol group=NHk-N
  N   -1.835632192   0.281062895   0.660270197
  C   -2.216723193  -0.446027628  -0.383260227
  N   -1.269753700  -1.002318483  -1.129574112
  N   -3.509691413  -0.608152959  -0.675992734
  H   -0.828961039   0.347563378   0.830042742
  H   -2.497054273   0.720404611   1.273177341
  H   -0.302770057  -0.846482804  -0.835236202
  H   -1.485700618  -1.574091649  -1.924926135
  H   -4.227861933  -0.186467213  -0.115498474
  H   -3.800723195  -1.154435145  -1.466320912
  H    3.451749532  -0.173002799   0.102391880
  H    3.468326232   1.588406907  -0.042728973
  H    3.017176525   0.814139697   1.480751761
  H    1.202549259   2.768441938  -0.494981735
  H    1.928344136  -1.836705345   0.807946370
  H    1.490304452  -0.841392465   2.195595709
  H    0.293101885  -1.911259901   1.465177585
  H    1.636136029   1.782260768  -1.869913663
  H   -0.010092200   1.689145074  -1.212739006
  C    1.502474374   0.708580550  -0.032437062
  N    0.671854022  -0.187091556   0.348054659
  C    1.124815037  -1.244961378   1.249772780
  C    1.040496599   1.792300000  -0.955442060
  C    2.941602833   0.746086533   0.394504406
