12
charge=1 charge_a=1 charge_b=0 selection_a=1-5 selection_b=6-12 scaling=1.1 benchmark_Eint=-30.968 benchmark_unit=kcal/mol group=NHk-N
  N   -0.148694578  -3.409567599   0.000000000
  H   -0.087922926  -2.332489211   0.000000000
  H    0.789060482  -3.807883208   0.000000000
  H   -0.645553072  -3.729173637  -0.829916654
  H   -0.645553072  -3.729173637   0.829916654
  H   -1.143832835   2.657882030   0.900143993
  H   -0.046903094   3.750560560   0.000000000
  H   -1.143832835   2.657882030  -0.900143993
  C   -0.554309392   2.795485255   0.000000000
  O    0.544759556   1.801439448   0.000000000
  C    0.251628068   0.579308624   0.000000000
  N    0.045827717  -0.556508938   0.000000000
