27
charge=1 charge_a=1 charge_b=0 selection_a=1-14 selection_b=15-27 scaling=0.9 benchmark_Eint=-25.487 benchmark_unit=kcal/mol group=NHk-N
  C   -1.010777060   1.794617164   1.014191330
  N   -0.001234495   1.362265179   0.013008446
  H   -0.000453505   0.254953010   0.002510737
  C   -0.360375546   1.817517496  -1.355287340
  C    1.366550413   1.802137944   0.392677302
  H   -1.984266735   1.411313135   0.724093375
  H   -1.043534722   2.880552147   1.057153312
  H   -0.736685484   1.398983823   1.987390623
  H   -1.343000341   1.432573094  -1.610306341
  H    0.374905099   1.439393484  -2.058953043
  H   -0.373503002   2.904192637  -1.389021362
  H    1.605638487   1.407619801   1.375505892
  H    1.410117144   2.888326356   0.414333386
  H    2.075905258   1.422913687  -0.336551483
  H    1.035750690  -2.732153894  -1.055186990
  H    0.725746578  -1.260308615  -1.986045167
  H    1.977011942  -1.269909130  -0.731465496
  H    1.348167416  -1.294204015   1.602390209
  H    0.377218899  -2.756389967   1.382834653
  H   -0.363987927  -1.299418127   2.058696223
  H   -1.404888297  -2.741240775  -0.406467354
  H   -2.070867057  -1.286101073   0.347175697
  C    0.990105956  -1.640616360  -1.001316803
  N    0.000905001  -1.189965505  -0.011303050
  C    0.360672583  -1.663820389   1.333228097
  C   -1.346472378  -1.649322054  -0.379137198
  H   -1.610019147  -1.267939585  -1.363675245
