24
charge=1 charge_a=1 charge_b=0 selection_a=1-10 selection_b=11-24 scaling=1.0 benchmark_Eint=-26.79 benchmark_unit=kcal/mol group=NHk-N
  N   -1.835632192   0.281062895   0.660270197
  C   -2.216723193  -0.446027628  -0.383260227
  N   -1.269753700  -1.002318483  -1.129574112
  N   -3.509691413  -0.608152959  -0.675992734
  H   -0.828961039   0.347563378   0.830042742
  H   -2.497054273   0.720404611   1.273177341
  H   -0.302770057  -0.846482804  -0.835236202
  H   -1.485700618  -1.574091649  -1.924926135
  H   -4.227861933  -0.186467213  -0.115498474
  H   -3.800723195  -1.154435145  -1.466320912
  H    3.833759570  -0.153753478   0.210617001
  H    3.850336270   1.607656228   0.065496148
  H    3.399186563   0.833389018   1.588976882
  H    1.584559297   2.787691259  -0.386756614
  H    2.310354174  -1.817456024   0.916171491
  H    1.872314490  -0.822143144   2.303820830
  H    0.675111923  -1.892010580   1.573402706
  H    2.018146067   1.801510089  -1.761688542
  H    0.371917838   1.708394395  -1.104513885
  C    1.884484412   0.727829871   0.075788059
  N    1.053864060  -0.167842235   0.456279780
  C    1.506825075  -1.225712057   1.357997901
  C    1.422506637   1.811549321  -0.847216939
  C    3.323612871   0.765335854   0.502729527
