20
charge=1 charge_a=1 charge_b=0 selection_a=1-14 selection_b=15-20 scaling=0.85 benchmark_Eint=-18.963 benchmark_unit=kcal/mol group=NHk-N
  C   -2.103775765   1.137940534  -0.015751126
  N   -1.467579522  -0.210559984  -0.001787963
  H   -0.435899413  -0.062039432  -0.000318246
  C   -1.802369371  -0.967145328   1.238730867
  C   -1.795741397  -0.989511188  -1.230172098
  H   -1.789477017   1.683302461   0.868316715
  H   -3.183789543   1.021893339  -0.017836217
  H   -1.784351289   1.667312683  -0.907668350
  H   -1.493095237  -0.383481766   2.099817650
  H   -1.271979645  -1.913882631   1.226123314
  H   -2.874147823  -1.140687190   1.271435748
  H   -1.481818474  -0.421533476  -2.100021463
  H   -2.867347953  -1.163615177  -1.265516463
  H   -1.265533571  -1.935870283  -1.197556771
  H    3.943340003   0.926344030  -0.955471338
  H    4.135863094  -0.427763763   0.174498687
  H    3.900010184   1.217870029   0.793999261
  C    3.627991741   0.519957120   0.003998632
  C    2.193397921   0.314909048   0.002711575
  N    1.058205940   0.152754214   0.001826290
