21
charge=1 charge_a=1 charge_b=0 selection_a=1-14 selection_b=15-21 scaling=1.5 benchmark_Eint=-9.043 benchmark_unit=kcal/mol group=NHk-N
  C    0.804517514  -1.373674860  -1.966325078
  N    0.136509233  -0.113416295  -1.529579709
  H    0.228867620  -0.057148468  -0.487999652
  C    0.800427618   1.093821942  -2.101545982
  C   -1.325102898  -0.133281102  -1.831175121
  H    1.853172774  -1.331053942  -1.689751739
  H    0.709858436  -1.470829274  -3.044018597
  H    0.325932218  -2.213921703  -1.473549854
  H    1.847718448   1.088321753  -1.816856016
  H    0.315738135   1.981401506  -1.707683518
  H    0.710131408   1.069535222  -3.183721368
  H   -1.772139335  -0.996720377  -1.348620789
  H   -1.465177778  -0.195727288  -2.906442261
  H   -1.775464221   0.778765321  -1.452151391
  H    1.471629324  -0.930046659   3.705327794
  H    1.762213180   0.825332747   3.603713484
  H    2.398663632  -0.256947086   2.355576612
  C    1.569414618  -0.080552554   3.031473968
  N    0.356440258   0.071439917   2.190830618
  N   -0.691988254   0.283908099   2.817653890
  N   -1.688310252   0.478712275   3.295174396
