24
charge=1 charge_a=1 charge_b=0 selection_a=1-14 selection_b=15-24 scaling=1.0 benchmark_Eint=-18.017 benchmark_unit=kcal/mol group=NHk-N
  C    0.220827833  -1.406243656  -1.849436665
  N   -0.304129145  -0.078923862  -1.423052794
  H   -0.174804445  -0.011491565  -0.371631517
  C    0.461844770   1.042126210  -2.035990576
  C   -1.764977019   0.044507536  -1.690445024
  H    1.274063632  -1.468281406  -1.594405536
  H    0.094102308  -1.514109844  -2.922940912
  H   -0.328782092  -2.185610659  -1.330907620
  H    1.510765626   0.936380418  -1.777574004
  H    0.081440317   1.982074397  -1.648503625
  H    0.342639326   1.010139971  -3.115282571
  H   -2.285642341  -0.760959447  -1.182193909
  H   -1.940623363  -0.019695694  -2.760547084
  H   -2.112054075   1.002574717  -1.316501670
  H   -1.882393456   1.202697556   1.670861677
  H   -1.307765751   0.370356369   3.145158922
  H   -2.055434081  -0.547281778   1.805203429
  H    2.587110422  -0.984880761   2.004162425
  H    2.102954511  -0.171376845   0.483418853
  H    2.758960279   0.752815227   1.870654955
  C   -1.419206148   0.298557476   2.066373454
  N   -0.121850320   0.119802199   1.409084226
  N    0.833557592   0.084591172   2.181153578
  C    2.138057776  -0.091208184   1.571904843
