21
charge=1 charge_a=1 charge_b=0 selection_a=1-14 selection_b=15-21 scaling=0.85 benchmark_Eint=-19.848 benchmark_unit=kcal/mol group=NHk-N
  C    0.615256892  -1.265111477  -1.127409964
  N   -0.140093353  -0.014010270  -0.846250376
  H   -0.283535471   0.040229106   0.221072799
  C    0.628953413   1.194152256  -1.250641255
  C   -1.491219251  -0.037814690  -1.469996266
  H    1.574508468  -1.220384144  -0.621230163
  H    0.769136422  -1.362948454  -2.198734517
  H    0.044713750  -2.112566483  -0.759859720
  H    1.585877873   1.192251652  -0.738021950
  H    0.065833919   2.080481439  -0.974770208
  H    0.787955796   1.179971009  -2.325579647
  H   -2.032423135  -0.906768614  -1.108422847
  H   -1.390468181  -0.090801255  -2.550709957
  H   -2.023930177   0.867198382  -1.194455614
  N   -0.424219948   0.106840482   1.656855946
  H   -1.044284387  -0.622600658   1.991963744
  H   -0.861886629   0.979165853   1.933183943
  C    0.893356495  -0.018717002   2.321447127
  H    1.546652986   0.780384248   1.978419864
  H    0.827750662   0.033238347   3.407295718
  H    1.343605989  -0.970719744   2.049777340
