17
charge=1 charge_a=1 charge_b=0 selection_a=1-10 selection_b=11-17 scaling=0.9 benchmark_Eint=-22.935 benchmark_unit=kcal/mol group=NHk-N
  N   -2.132812305   0.442491127  -0.199753587
  C   -2.402596161  -0.803755983   0.169873633
  N   -1.396226795  -1.620635958   0.457018582
  N   -3.666282178  -1.228156300   0.253930360
  H   -1.162902778   0.731089719  -0.261802695
  H   -2.861106695   1.091311128  -0.434284223
  H   -0.448347621  -1.270398784   0.375023274
  H   -1.553146251  -2.571480807   0.735681802
  H   -4.436157561  -0.619843315   0.042159745
  H   -3.883720033  -2.167646522   0.532638697
  H    3.293056973   2.392288708   0.691437390
  H    3.871859639   0.770396025   1.207709804
  H    4.695129603   1.636369752  -0.124989081
  C    3.754258918   1.461070909   0.379126172
  O    2.900398732   0.829633669  -0.647313863
  C    1.722823286   0.511914847  -0.324284700
  N    0.635199950   0.199550560  -0.085322267
