12
charge=1 charge_a=1 charge_b=0 selection_a=1-5 selection_b=6-12 scaling=1.0 benchmark_Eint=-31.698 benchmark_unit=kcal/mol group=NHk-N
  N   -0.148694578  -3.409567599   0.000000000
  H   -0.087922926  -2.332489211   0.000000000
  H    0.789060482  -3.807883208   0.000000000
  H   -0.645553072  -3.729173637  -0.829916654
  H   -0.645553072  -3.729173637   0.829916654
  H   -1.155991984   2.496429278   0.900143993
  H   -0.059062243   3.589107808   0.000000000
  H   -1.155991984   2.496429278  -0.900143993
  C   -0.566468541   2.634032503   0.000000000
  O    0.532600407   1.639986696   0.000000000
  C    0.239468919   0.417855872   0.000000000
  N    0.033668568  -0.717961690   0.000000000
