12
charge=1 charge_a=1 charge_b=0 selection_a=1-5 selection_b=6-12 scaling=2.0 benchmark_Eint=-13.868 benchmark_unit=kcal/mol group=NHk-N
  N   -0.148694578  -3.409567599   0.000000000
  H   -0.087922926  -2.332489211   0.000000000
  H    0.789060482  -3.807883208   0.000000000
  H   -0.645553072  -3.729173637  -0.829916654
  H   -0.645553072  -3.729173637   0.829916654
  H   -1.034400490   4.110956799   0.900143993
  H    0.062529251   5.203635329   0.000000000
  H   -1.034400490   4.110956799  -0.900143993
  C   -0.444877047   4.248560024   0.000000000
  O    0.654191901   3.254514217   0.000000000
  C    0.361060413   2.032383393   0.000000000
  N    0.155260062   0.896565831   0.000000000
