17
charge=1 charge_a=1 charge_b=0 selection_a=1-10 selection_b=11-17 scaling=0.85 benchmark_Eint=-20.874 benchmark_unit=kcal/mol group=NHk-N
  N   -2.132812305   0.442491127  -0.199753587
  C   -2.402596161  -0.803755983   0.169873633
  N   -1.396226795  -1.620635958   0.457018582
  N   -3.666282178  -1.228156300   0.253930360
  H   -1.162902778   0.731089719  -0.261802695
  H   -2.861106695   1.091311128  -0.434284223
  H   -0.448347621  -1.270398784   0.375023274
  H   -1.553146251  -2.571480807   0.735681802
  H   -4.436157561  -0.619843315   0.042159745
  H   -3.883720033  -2.167646522   0.532638697
  H    3.195890190   2.360646319   0.701009078
  H    3.774692856   0.738753636   1.217281492
  H    4.597962820   1.604727363  -0.115417393
  C    3.657092135   1.429428520   0.388697860
  O    2.803231949   0.797991280  -0.637742175
  C    1.625656503   0.480272458  -0.314713012
  N    0.538033167   0.167908171  -0.075750579
