14
charge=1 charge_a=1 charge_b=0 selection_a=1-10 selection_b=11-14 scaling=1.1 benchmark_Eint=-17.638 benchmark_unit=kcal/mol group=NHk-N
  N    0.111472806   0.890549260  -0.137669043
  C   -0.835535401  -0.025787896  -0.048320249
  N   -0.495632907  -1.295866651   0.185777108
  N   -2.124696579   0.292895852  -0.187263032
  H    1.112373236   0.630033098  -0.032163801
  H   -0.127067384   1.851435918  -0.307896095
  H    0.470504367  -1.546799713   0.294178739
  H   -1.182373637  -2.024473014   0.253692666
  H   -2.409467672   1.238662473  -0.367712564
  H   -2.848334679  -0.399368043  -0.114161269
  N    3.054836729   0.082657768   0.178508020
  H    3.435539848  -0.549609025  -0.517866846
  H    3.556330182   0.957564688   0.060270916
  H    3.338367174  -0.277532482   1.083774395
