12
charge=1 charge_a=1 charge_b=0 selection_a=1-5 selection_b=6-12 scaling=0.95 benchmark_Eint=-18.504 benchmark_unit=kcal/mol group=NHk-N
  N    0.111620855  -3.434902061   0.000000000
  H    0.082595615  -2.384721038   0.000000000
  H   -0.358757685  -3.791814028  -0.831749510
  H   -0.358757685  -3.791814028   0.831749510
  H    1.080916213  -3.752497220   0.000000000
  H    1.075099324   2.592231410  -0.893579186
  H    1.075099324   2.592231410   0.893579186
  H   -0.120060470   3.554084289   0.000000000
  C    0.455179216   2.637069418   0.000000000
  N   -0.521322750   1.529188455   0.000000000
  N   -0.171554573   0.386267692   0.000000000
  N    0.025266126  -0.735374973   0.000000000
