24
charge=1 charge_a=1 charge_b=0 selection_a=1-14 selection_b=15-24 scaling=1.0 benchmark_Eint=-25.579 benchmark_unit=kcal/mol group=NHk-N
  C    1.066522107  -0.797064791  -1.471846725
  N   -0.050836156   0.127154001  -1.142371764
  H   -0.158881150   0.137844238  -0.054577401
  C    0.248240766   1.520624979  -1.566700657
  C   -1.341006045  -0.350932702  -1.706410450
  H    1.974985161  -0.436952936  -0.999003781
  H    1.204464298  -0.833738271  -2.549500923
  H    0.827279289  -1.788523575  -1.099908328
  H    1.173906208   1.842055056  -1.099326305
  H   -0.564881936   2.168292873  -1.252940763
  H    0.350688136   1.559011450  -2.648151695
  H   -1.539008711  -1.352675839  -1.337732619
  H   -1.282428142  -0.364363167  -2.791722268
  H   -2.135057684   0.319240948  -1.391077734
  H    1.801140888   0.012289167   1.829138234
  H    0.957720430   0.585482778   3.269059868
  H    1.138863371   1.652145010   1.867537506
  H   -1.036863285   0.739224459   1.872537137
  H   -1.568528422  -1.547092102   1.632798441
  H    0.157722578  -1.929666674   1.686710627
  H   -0.651423027  -1.315878848   3.129574705
  C    0.970040445   0.623357918   2.178080334
  N   -0.283803246   0.122777323   1.588204947
  C   -0.607864073  -1.241166385   2.041298667
