17
charge=1 charge_a=1 charge_b=0 selection_a=1-10 selection_b=11-17 scaling=1.25 benchmark_Eint=-20.803 benchmark_unit=kcal/mol group=NHk-N
  N   -2.132812305   0.442491127  -0.199753587
  C   -2.402596161  -0.803755983   0.169873633
  N   -1.396226795  -1.620635958   0.457018582
  N   -3.666282178  -1.228156300   0.253930360
  H   -1.162902778   0.731089719  -0.261802695
  H   -2.861106695   1.091311128  -0.434284223
  H   -0.448347621  -1.270398784   0.375023274
  H   -1.553146251  -2.571480807   0.735681802
  H   -4.436157561  -0.619843315   0.042159745
  H   -3.883720033  -2.167646522   0.532638697
  H    3.973224455   2.613785429   0.624435568
  H    4.552027121   0.991892746   1.140707982
  H    5.375297085   1.857866473  -0.191990903
  C    4.434426400   1.682567630   0.312124350
  O    3.580566214   1.051130390  -0.714315685
  C    2.402990768   0.733411568  -0.391286522
  N    1.315367432   0.421047281  -0.152324089
