21
charge=1 charge_a=1 charge_b=0 selection_a=1-14 selection_b=15-21 scaling=1.05 benchmark_Eint=-23.376 benchmark_unit=kcal/mol group=NHk-N
  C    0.615256892  -1.265111477  -1.127409964
  N   -0.140093353  -0.014010270  -0.846250376
  H   -0.283535471   0.040229106   0.221072799
  C    0.628953413   1.194152256  -1.250641255
  C   -1.491219251  -0.037814690  -1.469996266
  H    1.574508468  -1.220384144  -0.621230163
  H    0.769136422  -1.362948454  -2.198734517
  H    0.044713750  -2.112566483  -0.759859720
  H    1.585877873   1.192251652  -0.738021950
  H    0.065833919   2.080481439  -0.974770208
  H    0.787955796   1.179971009  -2.325579647
  H   -2.032423135  -0.906768614  -1.108422847
  H   -1.390468181  -0.090801255  -2.550709957
  H   -2.023930177   0.867198382  -1.194455614
  N   -0.457322177   0.122513747   1.994687275
  H   -1.077386616  -0.606927393   2.329795073
  H   -0.894988858   0.994839118   2.271015272
  C    0.860254266  -0.003043737   2.659278456
  H    1.513550757   0.796057513   2.316251193
  H    0.794648433   0.048911612   3.745127047
  H    1.310503760  -0.955046479   2.387608669
