12
charge=1 charge_a=1 charge_b=0 selection_a=1-5 selection_b=6-12 scaling=0.9 benchmark_Eint=-17.355 benchmark_unit=kcal/mol group=NHk-N
  N    0.111620855  -3.434902061   0.000000000
  H    0.082595615  -2.384721038   0.000000000
  H   -0.358757685  -3.791814028  -0.831749510
  H   -0.358757685  -3.791814028   0.831749510
  H    1.080916213  -3.752497220   0.000000000
  H    1.078116665   2.505423723  -0.893579186
  H    1.078116665   2.505423723   0.893579186
  H   -0.117043129   3.467276602   0.000000000
  C    0.458196557   2.550261731   0.000000000
  N   -0.518305409   1.442380768   0.000000000
  N   -0.168537232   0.299460005   0.000000000
  N    0.028283467  -0.822182660   0.000000000
