24
charge=1 charge_a=1 charge_b=0 selection_a=1-14 selection_b=15-24 scaling=1.25 benchmark_Eint=-15.162 benchmark_unit=kcal/mol group=NHk-N
  C    0.220827833  -1.406243656  -1.849436665
  N   -0.304129145  -0.078923862  -1.423052794
  H   -0.174804445  -0.011491565  -0.371631517
  C    0.461844770   1.042126210  -2.035990576
  C   -1.764977019   0.044507536  -1.690445024
  H    1.274063632  -1.468281406  -1.594405536
  H    0.094102308  -1.514109844  -2.922940912
  H   -0.328782092  -2.185610659  -1.330907620
  H    1.510765626   0.936380418  -1.777574004
  H    0.081440317   1.982074397  -1.648503625
  H    0.342639326   1.010139971  -3.115282571
  H   -2.285642341  -0.760959447  -1.182193909
  H   -1.940623363  -0.019695694  -2.760547084
  H   -2.112054075   1.002574717  -1.316501670
  H   -1.869154925   1.235520997   2.116040613
  H   -1.294527220   0.403179810   3.590337858
  H   -2.042195550  -0.514458337   2.250382365
  H    2.600348953  -0.952057320   2.449341361
  H    2.116193042  -0.138553404   0.928597789
  H    2.772198810   0.785638668   2.315833891
  C   -1.405967617   0.331380917   2.511552390
  N   -0.108611789   0.152625640   1.854263162
  N    0.846796123   0.117414613   2.626332514
  C    2.151296307  -0.058384743   2.017083779
