24
charge=1 charge_a=1 charge_b=0 selection_a=1-14 selection_b=15-24 scaling=0.95 benchmark_Eint=-25.205 benchmark_unit=kcal/mol group=NHk-N
  C    1.066522107  -0.797064791  -1.471846725
  N   -0.050836156   0.127154001  -1.142371764
  H   -0.158881150   0.137844238  -0.054577401
  C    0.248240766   1.520624979  -1.566700657
  C   -1.341006045  -0.350932702  -1.706410450
  H    1.974985161  -0.436952936  -0.999003781
  H    1.204464298  -0.833738271  -2.549500923
  H    0.827279289  -1.788523575  -1.099908328
  H    1.173906208   1.842055056  -1.099326305
  H   -0.564881936   2.168292873  -1.252940763
  H    0.350688136   1.559011450  -2.648151695
  H   -1.539008711  -1.352675839  -1.337732619
  H   -1.282428142  -0.364363167  -2.791722268
  H   -2.135057684   0.319240948  -1.391077734
  H    1.807386993   0.013042513   1.746999117
  H    0.963966535   0.586236124   3.186920751
  H    1.145109476   1.652898356   1.785398389
  H   -1.030617180   0.739977805   1.790398020
  H   -1.562282317  -1.546338756   1.550659324
  H    0.163968683  -1.928913328   1.604571510
  H   -0.645176922  -1.315125502   3.047435588
  C    0.976286550   0.624111264   2.095941217
  N   -0.277557141   0.123530669   1.506065830
  C   -0.601617968  -1.240413039   1.959159550
