16
charge=1 charge_a=1 charge_b=0 selection_a=1-10 selection_b=11-16 scaling=1.1 benchmark_Eint=-21.439 benchmark_unit=kcal/mol group=NHk-C
  C   -2.774630814  -0.042943522  -1.269710132
  C   -1.426628311  -0.027294299  -1.432341362
  N   -0.867675399  -0.011995244  -0.174659019
  H    0.157728598   0.002165353   0.039025185
  C   -1.829724049  -0.017885463   0.735790206
  N   -2.998555156  -0.036677019   0.091226346
  H   -3.575014403  -0.057617422  -1.984321304
  H   -0.828680780  -0.025809282  -2.323489800
  H   -1.695740195  -0.009150059   1.801580674
  H   -3.901797772  -0.044926870   0.538205032
  H    5.138019690   0.943165043   0.435558589
  H    4.871452168   0.098855037   1.976846884
  H    5.152570127  -0.833761918   0.489983857
  C    2.165985177   0.029866574   0.444475267
  N    3.301160441   0.045385132   0.650961293
  C    4.701892204   0.064578070   0.903790222
