16
charge=1 charge_a=1 charge_b=0 selection_a=1-10 selection_b=11-16 scaling=2.0 benchmark_Eint=-7.928 benchmark_unit=kcal/mol group=NHk-C
  N   -1.575919306   0.806143489  -0.107755840
  C   -1.977733354  -0.459476553  -0.099443963
  N   -1.063197673  -1.419310999  -0.025236019
  N   -3.276083718  -0.760941045  -0.164383235
  H   -0.582797541   0.999148534  -0.057007990
  H   -2.226620324   1.567989364  -0.162465017
  H   -0.086486150  -1.154690177   0.022760173
  H   -1.314616855  -2.390658002  -0.015614980
  H   -3.976362429  -0.043666761  -0.220856824
  H   -3.591566931  -1.714095309  -0.159012349
  H    6.438512352   1.997117649   1.233245553
  H    6.827399735   0.532835130   0.304141497
  H    6.512411583   2.063309937  -0.542292417
  C    3.736544084   0.862838610   0.187723316
  N    4.859975720   1.125804585   0.244397212
  C    6.244396712   1.450204714   0.314244755
