16
charge=1 charge_a=1 charge_b=0 selection_a=1-10 selection_b=11-16 scaling=0.9 benchmark_Eint=-20.72 benchmark_unit=kcal/mol group=NHk-C
  C   -2.774630814  -0.042943522  -1.269710132
  C   -1.426628311  -0.027294299  -1.432341362
  N   -0.867675399  -0.011995244  -0.174659019
  H    0.157728598   0.002165353   0.039025185
  C   -1.829724049  -0.017885463   0.735790206
  N   -2.998555156  -0.036677019   0.091226346
  H   -3.575014403  -0.057617422  -1.984321304
  H   -0.828680780  -0.025809282  -2.323489800
  H   -1.695740195  -0.009150059   1.801580674
  H   -3.901797772  -0.044926870   0.538205032
  H    4.772882130   0.938128457   0.361840393
  H    4.506314608   0.093818451   1.903128688
  H    4.787432567  -0.838798504   0.416265661
  C    1.800847617   0.024829988   0.370757071
  N    2.936022881   0.040348546   0.577243097
  C    4.336754644   0.059541484   0.830072026
