16
charge=1 charge_a=1 charge_b=0 selection_a=1-10 selection_b=11-16 scaling=0.8 benchmark_Eint=-15.025 benchmark_unit=kcal/mol group=NHk-C
  C   -2.774630814  -0.042943522  -1.269710132
  C   -1.426628311  -0.027294299  -1.432341362
  N   -0.867675399  -0.011995244  -0.174659019
  H    0.157728598   0.002165353   0.039025185
  C   -1.829724049  -0.017885463   0.735790206
  N   -2.998555156  -0.036677019   0.091226346
  H   -3.575014403  -0.057617422  -1.984321304
  H   -0.828680780  -0.025809282  -2.323489800
  H   -1.695740195  -0.009150059   1.801580674
  H   -3.901797772  -0.044926870   0.538205032
  H    4.590313350   0.935610164   0.324981294
  H    4.323745828   0.091300158   1.866269589
  H    4.604863787  -0.841316797   0.379406562
  C    1.618278837   0.022311695   0.333897972
  N    2.753454101   0.037830253   0.540383998
  C    4.154185864   0.057023191   0.793212927
