11
charge=1 charge_a=1 charge_b=0 selection_a=1-5 selection_b=6-11 scaling=1.05 benchmark_Eint=-29.189 benchmark_unit=kcal/mol group=NHk-C
  N    0.000001655   0.000001458   2.921046025
  H    0.000001416   0.000000806   1.835940144
  H    0.958437807   0.000001146   3.267461025
  H   -0.479215840  -0.830028562   3.267461882
  H   -0.479215984   0.830031278   3.267461868
  H   -1.027331236  -0.000000399  -2.939202024
  H    0.513662724   0.889692946  -2.939202970
  H    0.513662788  -0.889693726  -2.939203520
  C    0.000000081  -0.000000743  -0.008050359
  N   -0.000000661  -0.000000828  -1.159608484
  C   -0.000001601  -0.000000538  -2.584518978
