16
charge=1 charge_a=1 charge_b=0 selection_a=1-10 selection_b=11-16 scaling=1.0 benchmark_Eint=-21.101 benchmark_unit=kcal/mol group=NHk-C
  N   -1.575919306   0.806143489  -0.107755840
  C   -1.977733354  -0.459476553  -0.099443963
  N   -1.063197673  -1.419310999  -0.025236019
  N   -3.276083718  -0.760941045  -0.164383235
  H   -0.582797541   0.999148534  -0.057007990
  H   -2.226620324   1.567989364  -0.162465017
  H   -0.086486150  -1.154690177   0.022760173
  H   -1.314616855  -2.390658002  -0.015614980
  H   -3.976362429  -0.043666761  -0.220856824
  H   -3.591566931  -1.714095309  -0.159012349
  H    4.261274185   1.494087134   1.123694871
  H    4.650161568   0.029804615   0.194590815
  H    4.335173416   1.560279422  -0.651843099
  C    1.559305917   0.359808095   0.078172634
  N    2.682737553   0.622774070   0.134846530
  C    4.067158545   0.947174199   0.204694073
