11
charge=1 charge_a=1 charge_b=0 selection_a=1-5 selection_b=6-11 scaling=1.1 benchmark_Eint=-28.605 benchmark_unit=kcal/mol group=NHk-C
  N    0.000001655   0.000001458   2.921046025
  H    0.000001416   0.000000806   1.835940144
  H    0.958437807   0.000001146   3.267461025
  H   -0.479215840  -0.830028562   3.267461882
  H   -0.479215984   0.830031278   3.267461868
  H   -1.027331299  -0.000000472  -3.027011095
  H    0.513662661   0.889692872  -3.027012041
  H    0.513662725  -0.889693800  -3.027012591
  C    0.000000018  -0.000000816  -0.095859430
  N   -0.000000724  -0.000000902  -1.247417555
  C   -0.000001664  -0.000000612  -2.672328049
