11
charge=1 charge_a=1 charge_b=0 selection_a=1-5 selection_b=6-11 scaling=2.0 benchmark_Eint=-11.959 benchmark_unit=kcal/mol group=NHk-C
  N    0.000001655   0.000001458   2.921046025
  H    0.000001416   0.000000806   1.835940144
  H    0.958437807   0.000001146   3.267461025
  H   -0.479215840  -0.830028562   3.267461882
  H   -0.479215984   0.830031278   3.267461868
  H   -1.027332443  -0.000001800  -4.607574383
  H    0.513661517   0.889691545  -4.607575329
  H    0.513661581  -0.889695127  -4.607575879
  C   -0.000001126  -0.000002144  -1.676422718
  N   -0.000001868  -0.000002229  -2.827980843
  C   -0.000002808  -0.000001939  -4.252891337
