20
charge=1 charge_a=1 charge_b=0 selection_a=1-14 selection_b=15-20 scaling=1.25 benchmark_Eint=-19.932 benchmark_unit=kcal/mol group=NHk-C
  C    0.448241622  -1.110299942  -2.127430280
  N   -0.164878552   0.113137938  -1.537462707
  H   -0.054977080   0.039144355  -0.496933798
  C    0.547259886   1.350965828  -1.963388400
  C   -1.626755465   0.190501603  -1.816207243
  H    1.495992620  -1.148285037  -1.846708737
  H    0.353939573  -1.070874674  -3.208875620
  H   -0.068068653  -1.983191496  -1.740760003
  H    1.593193080   1.267489963  -1.685747361
  H    0.100387819   2.203421305  -1.461741083
  H    0.455844487   1.462821421  -3.040008921
  H   -2.104778717  -0.706414116  -1.435335126
  H   -1.782040171   0.268209560  -2.888507690
  H   -2.033590859   1.064351719  -1.317311948
  H    1.060349514   0.516344664   4.751781050
  H   -0.508999659  -0.312239902   4.860341469
  H    0.980003789  -1.255416384   4.626962673
  C    0.193766580  -0.131441478   1.836604396
  N    0.318082206  -0.217374466   2.980447531
  C    0.471858477  -0.323737814   4.392274369
