16
charge=1 charge_a=1 charge_b=0 selection_a=1-10 selection_b=11-16 scaling=1.1 benchmark_Eint=-20.389 benchmark_unit=kcal/mol group=NHk-C
  N   -1.575919306   0.806143489  -0.107755840
  C   -1.977733354  -0.459476553  -0.099443963
  N   -1.063197673  -1.419310999  -0.025236019
  N   -3.276083718  -0.760941045  -0.164383235
  H   -0.582797541   0.999148534  -0.057007990
  H   -2.226620324   1.567989364  -0.162465017
  H   -0.086486150  -1.154690177   0.022760173
  H   -1.314616855  -2.390658002  -0.015614980
  H   -3.976362429  -0.043666761  -0.220856824
  H   -3.591566931  -1.714095309  -0.159012349
  H    4.478998002   1.544390185   1.134649939
  H    4.867885385   0.080107666   0.205545883
  H    4.552897233   1.610582473  -0.640888031
  C    1.777029734   0.410111146   0.089127702
  N    2.900461370   0.673077121   0.145801598
  C    4.284882362   0.997477250   0.215649141
