11
charge=1 charge_a=1 charge_b=0 selection_a=1-5 selection_b=6-11 scaling=0.95 benchmark_Eint=-28.907 benchmark_unit=kcal/mol group=NHk-C
  N    0.000001655   0.000001458   2.921046025
  H    0.000001416   0.000000806   1.835940144
  H    0.958437807   0.000001146   3.267461025
  H   -0.479215840  -0.830028562   3.267461882
  H   -0.479215984   0.830031278   3.267461868
  H   -1.027331108  -0.000000251  -2.763583880
  H    0.513662852   0.889693094  -2.763584826
  H    0.513662916  -0.889693578  -2.763585376
  C    0.000000209  -0.000000595   0.167567785
  N   -0.000000533  -0.000000680  -0.983990340
  C   -0.000001473  -0.000000390  -2.408900834
