10
charge=-1 charge_a=0 charge_b=-1 selection_a=1-6 selection_b=7-10 scaling=1.0 benchmark_Eint=-16.397 benchmark_unit=kcal/mol group=OH-Oa
  O   -1.491537052   1.456932722  -1.005297628
  H   -1.152166816   0.809683119  -0.344795821
  C   -0.770448190   1.264818571  -2.198308915
  H   -0.928405570   2.136399682  -2.839956168
  H    0.299665214   1.148821814  -2.010776683
  H   -1.110358605   0.377151783  -2.751892538
  N    0.591596245  -0.696197655   0.815278101
  O   -0.646892830  -0.415996192   0.808536300
  O    1.352606283  -0.143805922  -0.008935388
  O    1.028094496  -1.518325919   1.641960553
