9
charge=-1 charge_a=0 charge_b=-1 selection_a=1-6 selection_b=7-9 scaling=2.0 benchmark_Eint=-7.069 benchmark_unit=kcal/mol group=OH-Oa
  O   -0.385191390   1.504934957  -1.024064016
  H   -0.119859355   1.038602603  -0.187587752
  C   -0.249540071   0.590796658  -2.083573853
  H   -1.034857186   0.775465031  -2.825662383
  H    0.718746649   0.697341510  -2.597885212
  H   -0.331751805  -0.439617437  -1.728846555
  N    0.856304557  -1.643122549   2.936759189
  O    0.916141137  -0.388642025   2.779216262
  O    0.444463343  -2.303567718   1.964943414
