11
charge=-1 charge_a=0 charge_b=-1 selection_a=1-8 selection_b=9-11 scaling=1.1 benchmark_Eint=-38.8 benchmark_unit=kcal/mol group=OH-Oa
  C    1.679574128  -0.613252546   0.109456748
  O    1.327259608  -1.760631173  -0.118639392
  O    0.910305853   0.404262146   0.352656665
  H   -0.218000493   0.224566725   0.334040838
  C    3.160116697  -0.238954891   0.130527709
  H    3.775253095  -1.117398980  -0.045611212
  H    3.358572787   0.510557873  -0.636202022
  H    3.415730668   0.207839716   1.091596181
  N   -2.148030468   0.952838503  -0.456029603
  O   -1.642687736   0.146007223   0.419391332
  O   -3.368667146   1.005993718  -0.458770257
