6
charge=-1 charge_a=0 charge_b=-1 selection_a=1-3 selection_b=4-6 scaling=0.9 benchmark_Eint=-16.249 benchmark_unit=kcal/mol group=OH-Oa
  O    0.181818524  -2.064298258  -1.296939607
  H    0.261754568  -1.094953727  -1.068107513
  H   -0.228779188  -2.417819200  -0.505331155
  N   -0.218834415   0.234570174   0.603526734
  O    0.301953611   0.336306800  -0.551567927
  O   -0.307110296   1.286685820   1.254245997
