27
charge=-1 charge_a=0 charge_b=-1 selection_a=1-13 selection_b=14-27 scaling=0.85 benchmark_Eint=-24.168 benchmark_unit=kcal/mol group=OH-Oa
  H    2.965251329  -2.553508326  -1.124936834
  H    5.988583992   0.433071985  -1.762080928
  H    5.240376151  -1.931117228  -1.878237027
  H    2.156060742   1.517171193  -0.129791297
  H    0.637453031  -0.157588138   0.135262200
  H    4.430084419   2.151807506  -0.882871244
  C    4.996197933   0.155930039  -1.434220373
  C    4.572799890  -1.168132044  -1.497789697
  C    3.300143398  -1.526368237  -1.078488503
  C    2.415005096  -0.559735351  -0.581118553
  C    2.841675916   0.776308944  -0.516291630
  C    4.117496249   1.116829904  -0.940109371
  O    1.199953254  -0.947573751  -0.186679980
  O    0.010765095   0.907574005   0.507477616
  C   -1.152168736   1.199459562   0.925700018
  O   -1.479048008   2.225162471   1.534935498
  C   -2.265330354   0.183666006   0.637234858
  C   -3.521146389   0.369136120   1.214909568
  C   -4.556324069  -0.525076242   0.976821722
  C   -4.352834510  -1.620852846   0.143334834
  C   -3.106979926  -1.811218640  -0.442962284
  C   -2.070595249  -0.917406243  -0.194796614
  H   -3.655019199   1.234170630   1.847913248
  H   -5.523545030  -0.368755070   1.437662886
  H   -5.157948421  -2.318785846  -0.047292204
  H   -2.939315324  -2.659666509  -1.093819870
  H   -1.104280012  -1.073756601  -0.648140266
