10
charge=-1 charge_a=0 charge_b=-1 selection_a=1-6 selection_b=7-10 scaling=0.8 benchmark_Eint=-10.574 benchmark_unit=kcal/mol group=OH-Oa
  O   -1.491537052   1.456932722  -1.005297628
  H   -1.152166816   0.809683119  -0.344795821
  C   -0.770448190   1.264818571  -2.198308915
  H   -0.928405570   2.136399682  -2.839956168
  H    0.299665214   1.148821814  -2.010776683
  H   -1.110358605   0.377151783  -2.751892538
  N    0.490541448  -0.451061793   0.584611677
  O   -0.747947627  -0.170860330   0.577869876
  O    1.251551486   0.101329940  -0.239601812
  O    0.927039699  -1.273190057   1.411294129
