6
charge=-1 charge_a=0 charge_b=-1 selection_a=1-3 selection_b=4-6 scaling=1.25 benchmark_Eint=-14.888 benchmark_unit=kcal/mol group=OH-Oa
  O    0.181818524  -2.064298258  -1.296939607
  H    0.261754568  -1.094953727  -1.068107513
  H   -0.228779188  -2.417819200  -0.505331155
  N   -0.203201454   0.791171490   0.804403239
  O    0.317586572   0.892908117  -0.350691422
  O   -0.291477335   1.843287136   1.455122502
