13
charge=-1 charge_a=0 charge_b=-1 selection_a=1-6 selection_b=7-13 scaling=0.85 benchmark_Eint=-17.931 benchmark_unit=kcal/mol group=OH-Oa
  O   -0.204298186  -0.737785523   2.213977699
  H   -0.297980176  -0.785684740   1.223370934
  C    0.712295334   0.292530547   2.494426147
  H    1.722757814  -0.100618557   2.690881627
  H    0.780442301   0.999498096   1.663753855
  H    0.393939328   0.832336685   3.394752649
  C   -0.313540750  -0.032916127  -2.418599196
  C   -0.094338881   0.160938872  -0.900240857
  O   -0.402517502  -0.840965421  -0.193962692
  O    0.353598804   1.258062552  -0.517863595
  H   -1.367912653  -0.241502539  -2.609646313
  H    0.252367432  -0.900466914  -2.762676185
  H   -0.009293201   0.849768785  -2.978845368
