20
charge=-1 charge_a=0 charge_b=-1 selection_a=1-6 selection_b=7-20 scaling=1.0 benchmark_Eint=-19.248 benchmark_unit=kcal/mol group=OH-Oa
  O   -0.416065911   1.263364664  -3.837673656
  H   -0.387869382   1.170602736  -2.851271626
  C    0.416057207   0.261513143  -4.373417995
  H    0.006342764  -0.072122424  -5.333316212
  H    1.435549952   0.632295940  -4.562665090
  H    0.489646125  -0.596890578  -3.701451459
  O   -0.296333003   0.980517342  -1.164511448
  C    0.003399510  -0.139059556  -0.668447601
  O    0.298501948  -1.191889250  -1.262594423
  C    0.001019205  -0.193843912   0.866859104
  C    0.321595343  -1.376623788   1.529876747
  C    0.322146288  -1.436747879   2.918395847
  C   -0.000117350  -0.308014236   3.665938754
  C   -0.321792031   0.877627782   3.012530075
  C   -0.320281164   0.931370938   1.623414603
  H    0.567231775  -2.237032910   0.924103950
  H    0.573310343  -2.362663157   3.420815549
  H   -0.000647538  -0.352131844   4.747626349
  H   -0.573652415   1.759513135   3.588384273
  H   -0.566069700   1.838942401   1.091535174
