10
charge=-1 charge_a=0 charge_b=-1 selection_a=1-6 selection_b=7-10 scaling=1.5 benchmark_Eint=-10.17 benchmark_unit=kcal/mol group=OH-Oa
  O   -1.491537052   1.456932722  -1.005297628
  H   -1.152166816   0.809683119  -0.344795821
  C   -0.770448190   1.264818571  -2.198308915
  H   -0.928405570   2.136399682  -2.839956168
  H    0.299665214   1.148821814  -2.010776683
  H   -1.110358605   0.377151783  -2.751892538
  N    0.844233238  -1.309037310   1.391944162
  O   -0.394255837  -1.028835848   1.385202360
  O    1.605243276  -0.756645578   0.567730672
  O    1.280731489  -2.131165574   2.218626614
