10
charge=-1 charge_a=0 charge_b=-1 selection_a=1-6 selection_b=7-10 scaling=0.9 benchmark_Eint=-15.34 benchmark_unit=kcal/mol group=OH-Oa
  O   -1.491537052   1.456932722  -1.005297628
  H   -1.152166816   0.809683119  -0.344795821
  C   -0.770448190   1.264818571  -2.198308915
  H   -0.928405570   2.136399682  -2.839956168
  H    0.299665214   1.148821814  -2.010776683
  H   -1.110358605   0.377151783  -2.751892538
  N    0.541068846  -0.573629724   0.699944889
  O   -0.697420229  -0.293428261   0.693203088
  O    1.302078884  -0.021237991  -0.124268600
  O    0.977567097  -1.395757988   1.526627341
