20
charge=-1 charge_a=0 charge_b=-1 selection_a=1-13 selection_b=14-20 scaling=1.05 benchmark_Eint=-32.262 benchmark_unit=kcal/mol group=OH-Oa
  H    2.333653126  -2.565918042  -0.107845473
  H    3.470324416   0.601506915  -2.780881747
  H    3.910590644  -1.623732882  -1.768224522
  H   -0.135509354   0.912917157  -0.447222096
  H   -0.630812479  -0.882042424   0.964191667
  H    1.435626373   1.853843841  -2.102751606
  C    2.785519591   0.184142296  -2.054979409
  C    3.028529886  -1.062035844  -1.485389205
  C    2.150602176  -1.597796283  -0.554348211
  C    0.999016289  -0.894311555  -0.167387699
  C    0.752295800   0.364138959  -0.741677660
  C    1.642243486   0.882426270  -1.670739148
  O    0.188728597  -1.453648195   0.730351796
  C   -3.825852489   1.186133461   1.968859237
  C   -2.508976525   0.878817282   1.231391206
  O   -1.990338518  -0.239120109   1.533518935
  O   -2.076825028   1.721754888   0.428314663
  H   -4.556454268   0.405491107   1.751314740
  H   -4.224595527   2.154537987   1.673492465
  H   -3.652568389   1.172419058   3.046016089
