6
charge=-1 charge_a=0 charge_b=-1 selection_a=1-3 selection_b=4-6 scaling=0.85 benchmark_Eint=-14.37 benchmark_unit=kcal/mol group=OH-Oa
  O    0.181818524  -2.064298258  -1.296939607
  H    0.261754568  -1.094953727  -1.068107513
  H   -0.228779188  -2.417819200  -0.505331155
  N   -0.221067695   0.155055700   0.574830090
  O    0.299720331   0.256792327  -0.580264571
  O   -0.309343576   1.207171346   1.225549353
