5
charge=-1 charge_a=0 charge_b=-1 selection_a=1-3 selection_b=4-5 scaling=1.5 benchmark_Eint=-27.146 benchmark_unit=kcal/mol group=OH-Oa
  O   -0.078719960  -0.924127744  -0.811003191
  H    0.031689558  -0.043993800  -0.081842430
  H   -0.295773036  -1.654797588  -0.228477884
  O    0.192664773   1.435017942   1.220328230
  H   -0.639047163   1.907926993   1.136889574
