7
charge=-1 charge_a=0 charge_b=-1 selection_a=1-3 selection_b=4-7 scaling=0.95 benchmark_Eint=-13.429 benchmark_unit=kcal/mol group=OH-Oa
  O   -0.200102966  -1.998204668  -1.994996425
  H   -0.150044238  -1.339152027  -1.263629579
  H   -0.541292159  -2.775745672  -1.549597553
  N    0.072390804   0.557329853   0.479360640
  O   -0.269278927  -0.652165329   0.297307438
  O    0.490611657   1.230531964  -0.484350828
  O   -0.016724738   1.051062081   1.621245016
