5
charge=-1 charge_a=0 charge_b=-1 selection_a=1-3 selection_b=4-5 scaling=1.25 benchmark_Eint=-35.203 benchmark_unit=kcal/mol group=OH-Oa
  O   -0.078719960  -0.924127744  -0.811003191
  H    0.031689558  -0.043993800  -0.081842430
  H   -0.295773036  -1.654797588  -0.228477884
  O    0.165835570   1.188515985   1.003299786
  H   -0.665876366   1.661425036   0.919861131
