6
charge=-1 charge_a=0 charge_b=-1 selection_a=1-3 selection_b=4-6 scaling=1.5 benchmark_Eint=-11.192 benchmark_unit=kcal/mol group=OH-Oa
  O    0.181818524  -2.064298258  -1.296939607
  H    0.261754568  -1.094953727  -1.068107513
  H   -0.228779188  -2.417819200  -0.505331155
  N   -0.192035054   1.188743858   0.947886458
  O    0.328752972   1.290480486  -0.207208204
  O   -0.280310934   2.240859504   1.598605720
