20
charge=-1 charge_a=0 charge_b=-1 selection_a=1-6 selection_b=7-20 scaling=1.05 benchmark_Eint=-19.049 benchmark_unit=kcal/mol group=OH-Oa
  O   -0.416065911   1.263364664  -3.837673656
  H   -0.387869382   1.170602736  -2.851271626
  C    0.416057207   0.261513143  -4.373417995
  H    0.006342764  -0.072122424  -5.333316212
  H    1.435549952   0.632295940  -4.562665090
  H    0.489646125  -0.596890578  -3.701451459
  O   -0.291756184   0.971013072  -1.080173439
  C    0.007976329  -0.148563826  -0.584109592
  O    0.303078767  -1.201393520  -1.178256414
  C    0.005596024  -0.203348182   0.951197113
  C    0.326172162  -1.386128058   1.614214756
  C    0.326723107  -1.446252149   3.002733856
  C    0.004459469  -0.317518506   3.750276763
  C   -0.317215212   0.868123512   3.096868084
  C   -0.315704345   0.921866668   1.707752612
  H    0.571808594  -2.246537180   1.008441959
  H    0.577887162  -2.372167427   3.505153558
  H    0.003929281  -0.361636114   4.831964358
  H   -0.569075596   1.750008865   3.672722282
  H   -0.561492881   1.829438131   1.175873183
