20
charge=-1 charge_a=0 charge_b=-1 selection_a=1-13 selection_b=14-20 scaling=0.8 benchmark_Eint=-23.628 benchmark_unit=kcal/mol group=OH-Oa
  H    2.333653126  -2.565918042  -0.107845473
  H    3.470324416   0.601506915  -2.780881747
  H    3.910590644  -1.623732882  -1.768224522
  H   -0.135509354   0.912917157  -0.447222096
  H   -0.630812479  -0.882042424   0.964191667
  H    1.435626373   1.853843841  -2.102751606
  C    2.785519591   0.184142296  -2.054979409
  C    3.028529886  -1.062035844  -1.485389205
  C    2.150602176  -1.597796283  -0.554348211
  C    0.999016289  -0.894311555  -0.167387699
  C    0.752295800   0.364138959  -0.741677660
  C    1.642243486   0.882426270  -1.670739148
  O    0.188728597  -1.453648195   0.730351796
  C   -3.502155813   1.033056720   1.833305126
  C   -2.185279849   0.725740541   1.095837095
  O   -1.666641842  -0.392196850   1.397964824
  O   -1.753128352   1.568678147   0.292760552
  H   -4.232757592   0.252414366   1.615760629
  H   -3.900898851   2.001461246   1.537938354
  H   -3.328871713   1.019342317   2.910461978
