9
charge=-2 charge_a=0 charge_b=-2 selection_a=1-3 selection_b=4-9 scaling=0.85 benchmark_Eint=-26.797 benchmark_unit=kcal/mol group=OH-Oa
  O   -0.545165845  -2.952028234  -1.200939738
  H   -0.454201379  -2.059658579  -1.607994472
  H   -0.407250553  -2.604918400  -0.289487970
  C   -0.069032139  -0.373684817  -0.151987021
  O   -0.204492188  -0.476829334  -1.407932865
  O   -0.130397715  -1.335953868   0.670591548
  C    0.194275876   1.051758224   0.427838682
  O   -0.822529542   1.724353685   0.743679613
  O    1.399954285   1.401560371   0.527869494
