27
charge=-1 charge_a=0 charge_b=-1 selection_a=1-13 selection_b=14-27 scaling=1.0 benchmark_Eint=-28.015 benchmark_unit=kcal/mol group=OH-Oa
  H    2.965251329  -2.553508326  -1.124936834
  H    5.988583992   0.433071985  -1.762080928
  H    5.240376151  -1.931117228  -1.878237027
  H    2.156060742   1.517171193  -0.129791297
  H    0.637453031  -0.157588138   0.135262200
  H    4.430084419   2.151807506  -0.882871244
  C    4.996197933   0.155930039  -1.434220373
  C    4.572799890  -1.168132044  -1.497789697
  C    3.300143398  -1.526368237  -1.078488503
  C    2.415005096  -0.559735351  -0.581118553
  C    2.841675916   0.776308944  -0.516291630
  C    4.117496249   1.116829904  -0.940109371
  O    1.199953254  -0.947573751  -0.186679980
  O   -0.099826894   1.095543795   0.573162690
  C   -1.262760725   1.387429352   0.991385091
  O   -1.589639997   2.413132261   1.600620572
  C   -2.375922343   0.371635796   0.702919932
  C   -3.631738378   0.557105910   1.280594642
  C   -4.666916058  -0.337106452   1.042506795
  C   -4.463426499  -1.432883056   0.209019908
  C   -3.217571915  -1.623248850  -0.377277210
  C   -2.181187238  -0.729436453  -0.129111541
  H   -3.765611188   1.422140420   1.913598322
  H   -5.634137019  -0.180785280   1.503347959
  H   -5.268540410  -2.130816056   0.018392870
  H   -3.049907313  -2.471696719  -1.028134796
  H   -1.214872001  -0.885786811  -0.582455192
