7
charge=-1 charge_a=0 charge_b=-1 selection_a=1-3 selection_b=4-7 scaling=1.1 benchmark_Eint=-13.155 benchmark_unit=kcal/mol group=OH-Oa
  O   -0.200102966  -1.998204668  -1.994996425
  H   -0.150044238  -1.339152027  -1.263629579
  H   -0.541292159  -2.775745672  -1.549597553
  N    0.053564274   0.665801437   0.725824380
  O   -0.288105457  -0.543693745   0.543771178
  O    0.471785127   1.339003548  -0.237887088
  O   -0.035551268   1.159533665   1.867708756
