20
charge=-1 charge_a=0 charge_b=-1 selection_a=1-6 selection_b=7-20 scaling=1.1 benchmark_Eint=-18.545 benchmark_unit=kcal/mol group=OH-Oa
  O   -0.416065911   1.263364664  -3.837673656
  H   -0.387869382   1.170602736  -2.851271626
  C    0.416057207   0.261513143  -4.373417995
  H    0.006342764  -0.072122424  -5.333316212
  H    1.435549952   0.632295940  -4.562665090
  H    0.489646125  -0.596890578  -3.701451459
  O   -0.287179365   0.961508803  -0.995835430
  C    0.012553148  -0.158068095  -0.499771583
  O    0.307655586  -1.210897789  -1.093918405
  C    0.010172843  -0.212852451   1.035535122
  C    0.330748981  -1.395632327   1.698552765
  C    0.331299926  -1.455756418   3.087071865
  C    0.009036288  -0.327022775   3.834614772
  C   -0.312638393   0.858619243   3.181206093
  C   -0.311127526   0.912362399   1.792090621
  H    0.576385413  -2.256041449   1.092779968
  H    0.582463981  -2.381671696   3.589491567
  H    0.008506100  -0.371140383   4.916302367
  H   -0.564498777   1.740504596   3.757060291
  H   -0.556916062   1.819933862   1.260211192
