17
charge=-1 charge_a=0 charge_b=-1 selection_a=1-13 selection_b=14-17 scaling=1.05 benchmark_Eint=-24.671 benchmark_unit=kcal/mol group=OH-Oa
  H    1.594900710  -2.713825685  -1.463250850
  H    4.258192171   0.657936367  -1.411251197
  H    3.796608745  -1.710999646  -1.993694581
  H    0.311323381   0.969142684   0.275151959
  H   -1.060254201  -0.891652004   0.012751696
  H    2.495609401   1.989689005  -0.280448235
  C    3.299512100   0.214027999  -1.180535030
  C    3.037367304  -1.113433808  -1.504826690
  C    1.807670847  -1.684102741  -1.210960970
  C    0.807438405  -0.932533363  -0.580304265
  C    1.072040126   0.402741139  -0.244656652
  C    2.306257141   0.958144513  -0.548790722
  O   -0.360449697  -1.530242201  -0.317426047
  N   -2.550762244   0.891560276   1.207354480
  O   -2.510451642  -0.034539226   0.331199794
  O   -3.639839964   1.412469758   1.485772674
  O   -1.492500536   1.253932204   1.762302177
