27
charge=-1 charge_a=0 charge_b=-1 selection_a=1-13 selection_b=14-27 scaling=0.8 benchmark_Eint=-20.077 benchmark_unit=kcal/mol group=OH-Oa
  H    2.965251329  -2.553508326  -1.124936834
  H    5.988583992   0.433071985  -1.762080928
  H    5.240376151  -1.931117228  -1.878237027
  H    2.156060742   1.517171193  -0.129791297
  H    0.637453031  -0.157588138   0.135262200
  H    4.430084419   2.151807506  -0.882871244
  C    4.996197933   0.155930039  -1.434220373
  C    4.572799890  -1.168132044  -1.497789697
  C    3.300143398  -1.526368237  -1.078488503
  C    2.415005096  -0.559735351  -0.581118553
  C    2.841675916   0.776308944  -0.516291630
  C    4.117496249   1.116829904  -0.940109371
  O    1.199953254  -0.947573751  -0.186679980
  O    0.047629091   0.844917408   0.485582592
  C   -1.115304740   1.136802965   0.903804993
  O   -1.442184012   2.162505874   1.513040474
  C   -2.228466358   0.121009409   0.615339834
  C   -3.484282393   0.306479523   1.193014544
  C   -4.519460073  -0.587732839   0.954926697
  C   -4.315970514  -1.683509443   0.121439810
  C   -3.070115930  -1.873875237  -0.464857308
  C   -2.033731253  -0.980062840  -0.216691639
  H   -3.618155203   1.171514033   1.826018224
  H   -5.486681034  -0.431411667   1.415767861
  H   -5.121084425  -2.381442443  -0.069187228
  H   -2.902451328  -2.722323106  -1.115714894
  H   -1.067416016  -1.136413198  -0.670035290
