20
charge=-1 charge_a=0 charge_b=-1 selection_a=1-6 selection_b=7-20 scaling=1.25 benchmark_Eint=-16.188 benchmark_unit=kcal/mol group=OH-Oa
  O   -0.416065911   1.263364664  -3.837673656
  H   -0.387869382   1.170602736  -2.851271626
  C    0.416057207   0.261513143  -4.373417995
  H    0.006342764  -0.072122424  -5.333316212
  H    1.435549952   0.632295940  -4.562665090
  H    0.489646125  -0.596890578  -3.701451459
  O   -0.273448908   0.932995994  -0.742821404
  C    0.026283605  -0.186580904  -0.246757556
  O    0.321386043  -1.239410598  -0.840904378
  C    0.023903300  -0.241365260   1.288549148
  C    0.344479438  -1.424145136   1.951566792
  C    0.345030383  -1.484269228   3.340085892
  C    0.022766745  -0.355535584   4.087628798
  C   -0.298907936   0.830106434   3.434220120
  C   -0.297397069   0.883849590   2.045104648
  H    0.590115870  -2.284554258   1.345793994
  H    0.596194438  -2.410184506   3.842505594
  H    0.022236557  -0.399653192   5.169316394
  H   -0.550768320   1.711991786   4.010074318
  H   -0.543185605   1.791421052   1.513225218
