10
charge=-1 charge_a=0 charge_b=-1 selection_a=1-6 selection_b=7-10 scaling=1.1 benchmark_Eint=-15.762 benchmark_unit=kcal/mol group=OH-Oa
  O   -1.491537052   1.456932722  -1.005297628
  H   -1.152166816   0.809683119  -0.344795821
  C   -0.770448190   1.264818571  -2.198308915
  H   -0.928405570   2.136399682  -2.839956168
  H    0.299665214   1.148821814  -2.010776683
  H   -1.110358605   0.377151783  -2.751892538
  N    0.642123644  -0.818765586   0.930611313
  O   -0.596365431  -0.538564123   0.923869512
  O    1.403133682  -0.266373853   0.106397824
  O    1.078621895  -1.640893850   1.757293765
