27
charge=-1 charge_a=0 charge_b=-1 selection_a=1-13 selection_b=14-27 scaling=1.5 benchmark_Eint=-18.34 benchmark_unit=kcal/mol group=OH-Oa
  H    2.965251329  -2.553508326  -1.124936834
  H    5.988583992   0.433071985  -1.762080928
  H    5.240376151  -1.931117228  -1.878237027
  H    2.156060742   1.517171193  -0.129791297
  H    0.637453031  -0.157588138   0.135262200
  H    4.430084419   2.151807506  -0.882871244
  C    4.996197933   0.155930039  -1.434220373
  C    4.572799890  -1.168132044  -1.497789697
  C    3.300143398  -1.526368237  -1.078488503
  C    2.415005096  -0.559735351  -0.581118553
  C    2.841675916   0.776308944  -0.516291630
  C    4.117496249   1.116829904  -0.940109371
  O    1.199953254  -0.947573751  -0.186679980
  O   -0.468466856   1.722109762   0.792112935
  C   -1.631400688   2.013995318   1.210335336
  O   -1.958279960   3.039698228   1.819570817
  C   -2.744562306   0.998201762   0.921870177
  C   -4.000378340   1.183671876   1.499544887
  C   -5.035556020   0.289459514   1.261457040
  C   -4.832066462  -0.806317090   0.427970153
  C   -3.586211878  -0.996682884  -0.158326965
  C   -2.549827200  -0.102870486   0.089838704
  H   -4.134251150   2.048706386   2.132548567
  H   -6.002776982   0.445780686   1.722298204
  H   -5.637180372  -1.504250090   0.237343115
  H   -3.418547276  -1.845130752  -0.809184551
  H   -1.583511964  -0.259220844  -0.363504947
