9
charge=-2 charge_a=0 charge_b=-2 selection_a=1-3 selection_b=4-9 scaling=0.9 benchmark_Eint=-29.228 benchmark_unit=kcal/mol group=OH-Oa
  O   -0.545165845  -2.952028234  -1.200939738
  H   -0.454201379  -2.059658579  -1.607994472
  H   -0.407250553  -2.604918400  -0.289487970
  C   -0.053097300  -0.287383731  -0.116878788
  O   -0.188557349  -0.390528248  -1.372824632
  O   -0.114462876  -1.249652782   0.705699781
  C    0.210210715   1.138059310   0.462946915
  O   -0.806594703   1.810654771   0.778787846
  O    1.415889124   1.487861457   0.562977727
