13
charge=-1 charge_a=0 charge_b=-1 selection_a=1-6 selection_b=7-13 scaling=1.1 benchmark_Eint=-20.461 benchmark_unit=kcal/mol group=OH-Oa
  O   -0.204298186  -0.737785523   2.213977699
  H   -0.297980176  -0.785684740   1.223370934
  C    0.712295334   0.292530547   2.494426147
  H    1.722757814  -0.100618557   2.690881627
  H    0.780442301   0.999498096   1.663753855
  H    0.393939328   0.832336685   3.394752649
  C   -0.344287022  -0.049175150  -2.835462028
  C   -0.125085153   0.144679848  -1.317103688
  O   -0.433263774  -0.857224444  -0.610825524
  O    0.322852532   1.241803528  -0.934726426
  H   -1.398658925  -0.257761562  -3.026509144
  H    0.221621160  -0.916725938  -3.179539016
  H   -0.040039473   0.833509762  -3.395708200
