16
charge=-1 charge_a=0 charge_b=-1 selection_a=1-13 selection_b=14-16 scaling=1.5 benchmark_Eint=-19.759 benchmark_unit=kcal/mol group=OH-Oa
  H    1.321843715  -2.315327588  -1.260984251
  H    4.308122312   0.700286566  -0.583740594
  H    3.670445131  -1.551573020  -1.415861172
  H    0.216595312   1.390653111   0.550170355
  H   -1.281023742  -0.310212026   0.129873805
  H    2.559813316   2.161349570   0.399358298
  C    3.283375991   0.361267258  -0.518633653
  C    2.921194453  -0.899806174  -0.983593600
  C    1.608030203  -1.336624520  -0.901180629
  C    0.611276842  -0.517468044  -0.346603894
  C    0.979368797   0.756296822   0.122569534
  C    2.297921619   1.176801505   0.032075293
  O   -0.633422384  -0.982902147  -0.290467493
  N   -3.710612174   1.394198060   1.356992718
  O   -2.454571984   1.480865092   1.136340718
  O   -4.247208382   0.338210314   1.015386921
