27
charge=-1 charge_a=0 charge_b=-1 selection_a=1-13 selection_b=14-27 scaling=1.1 benchmark_Eint=-27.126 benchmark_unit=kcal/mol group=OH-Oa
  H    2.965251329  -2.553508326  -1.124936834
  H    5.988583992   0.433071985  -1.762080928
  H    5.240376151  -1.931117228  -1.878237027
  H    2.156060742   1.517171193  -0.129791297
  H    0.637453031  -0.157588138   0.135262200
  H    4.430084419   2.151807506  -0.882871244
  C    4.996197933   0.155930039  -1.434220373
  C    4.572799890  -1.168132044  -1.497789697
  C    3.300143398  -1.526368237  -1.078488503
  C    2.415005096  -0.559735351  -0.581118553
  C    2.841675916   0.776308944  -0.516291630
  C    4.117496249   1.116829904  -0.940109371
  O    1.199953254  -0.947573751  -0.186679980
  O   -0.173554886   1.220856988   0.616952739
  C   -1.336488718   1.512742545   1.035175140
  O   -1.663367990   2.538445454   1.644410621
  C   -2.449650336   0.496948989   0.746709981
  C   -3.705466370   0.682419103   1.324384691
  C   -4.740644050  -0.211793259   1.086296844
  C   -4.537154492  -1.307569863   0.252809957
  C   -3.291299908  -1.497935657  -0.333487161
  C   -2.254915230  -0.604123260  -0.085321492
  H   -3.839339180   1.547453613   1.957388371
  H   -5.707865012  -0.055472087   1.547138008
  H   -5.342268402  -2.005502863   0.062182919
  H   -3.123635306  -2.346383526  -0.984344747
  H   -1.288599994  -0.760473618  -0.538665143
