7
charge=-1 charge_a=0 charge_b=-1 selection_a=1-3 selection_b=4-7 scaling=0.9 benchmark_Eint=-12.702 benchmark_unit=kcal/mol group=OH-Oa
  O   -0.200102966  -1.998204668  -1.994996425
  H   -0.150044238  -1.339152027  -1.263629579
  H   -0.541292159  -2.775745672  -1.549597553
  N    0.078666314   0.521172659   0.397206060
  O   -0.263003417  -0.688322523   0.215152858
  O    0.496887167   1.194374770  -0.566505408
  O   -0.010449228   1.014904887   1.539090436
