13
charge=-1 charge_a=0 charge_b=-1 selection_a=1-6 selection_b=7-13 scaling=0.95 benchmark_Eint=-20.959 benchmark_unit=kcal/mol group=OH-Oa
  O   -0.204298186  -0.737785523   2.213977699
  H   -0.297980176  -0.785684740   1.223370934
  C    0.712295334   0.292530547   2.494426147
  H    1.722757814  -0.100618557   2.690881627
  H    0.780442301   0.999498096   1.663753855
  H    0.393939328   0.832336685   3.394752649
  C   -0.325839259  -0.039419736  -2.585344329
  C   -0.106637390   0.154435263  -1.066985990
  O   -0.414816011  -0.847469030  -0.360707825
  O    0.341300295   1.251558943  -0.684608728
  H   -1.380211162  -0.248006148  -2.776391446
  H    0.240068923  -0.906970523  -2.929421318
  H   -0.021591710   0.843265176  -3.145590501
