20
charge=-1 charge_a=0 charge_b=-1 selection_a=1-13 selection_b=14-20 scaling=2.0 benchmark_Eint=-12.473 benchmark_unit=kcal/mol group=OH-Oa
  H    2.333653126  -2.565918042  -0.107845473
  H    3.470324416   0.601506915  -2.780881747
  H    3.910590644  -1.623732882  -1.768224522
  H   -0.135509354   0.912917157  -0.447222096
  H   -0.630812479  -0.882042424   0.964191667
  H    1.435626373   1.853843841  -2.102751606
  C    2.785519591   0.184142296  -2.054979409
  C    3.028529886  -1.062035844  -1.485389205
  C    2.150602176  -1.597796283  -0.554348211
  C    0.999016289  -0.894311555  -0.167387699
  C    0.752295800   0.364138959  -0.741677660
  C    1.642243486   0.882426270  -1.670739148
  O    0.188728597  -1.453648195   0.730351796
  C   -5.055899858   1.767825080   2.483964861
  C   -3.739023894   1.460508901   1.746496830
  O   -3.220385887   0.342571510   2.048624559
  O   -3.306872397   2.303446507   0.943420287
  H   -5.786501637   0.987182726   2.266420364
  H   -5.454642896   2.736229606   2.188598089
  H   -4.882615758   1.754110677   3.561121713
