5
charge=-1 charge_a=0 charge_b=-1 selection_a=1-3 selection_b=4-5 scaling=1.1 benchmark_Eint=-16.059 benchmark_unit=kcal/mol group=OH-Na
  O   -0.191375339  -1.365037704  -1.407361054
  H   -0.103609683  -0.590928264  -0.786452397
  H   -0.135943946  -2.113683698  -0.810934482
  C    0.210258567   1.441779286   1.556040217
  N    0.088003110   0.743609654   0.627805802
