10
charge=-1 charge_a=0 charge_b=-1 selection_a=1-8 selection_b=9-10 scaling=2.0 benchmark_Eint=-10.419 benchmark_unit=kcal/mol group=OH-Na
  C    1.104710407  -0.400343921  -0.015744828
  O    0.698586684  -1.523372021  -0.250774055
  O    0.381432798   0.675215139   0.148506994
  H   -0.686716691   0.563026453   0.069119192
  C    2.593893917  -0.105478830   0.121727587
  H    3.170886390  -1.014945375  -0.020066651
  H    2.891546464   0.641775758  -0.614122034
  H    2.797463442   0.313521037   1.107368931
  C   -4.778182056   0.920138794  -0.085763154
  N   -3.623080469   0.765701423  -0.052001116
