10
charge=-1 charge_a=0 charge_b=-1 selection_a=1-8 selection_b=9-10 scaling=0.9 benchmark_Eint=-28.963 benchmark_unit=kcal/mol group=OH-Na
  C    1.104710407  -0.400343921  -0.015744828
  O    0.698586684  -1.523372021  -0.250774055
  O    0.381432798   0.675215139   0.148506994
  H   -0.686716691   0.563026453   0.069119192
  C    2.593893917  -0.105478830   0.121727587
  H    3.170886390  -1.014945375  -0.020066651
  H    2.891546464   0.641775758  -0.614122034
  H    2.797463442   0.313521037   1.107368931
  C   -3.163181978   0.808667560  -0.019146985
  N   -2.008080391   0.654230190   0.014615053
