8
charge=-1 charge_a=0 charge_b=-1 selection_a=1-6 selection_b=7-8 scaling=0.8 benchmark_Eint=-12.344 benchmark_unit=kcal/mol group=OH-Ca
  O    0.679371003  -1.382309636   0.100133184
  H    0.571468069  -0.383993132   0.078073590
  C   -0.607682953  -1.927592746   0.024192146
  H   -0.539829132  -2.958594595  -0.338375073
  H   -1.116979480  -1.951922504   1.000111086
  H   -1.251750787  -1.366055671  -0.662977985
  C    0.208259047   1.038109553  -0.013578416
  N   -0.096898537   2.160357621  -0.086453220
