5
charge=-1 charge_a=0 charge_b=-1 selection_a=1-3 selection_b=4-5 scaling=0.95 benchmark_Eint=-16.369 benchmark_unit=kcal/mol group=OH-Ca
  O    0.220311970  -1.715180308  -1.182816955
  H    0.127239907  -0.834508093  -0.716063691
  H    0.137658852  -2.338231956  -0.458174070
  C   -0.064555764   0.618140847   0.324047726
  N   -0.196648630   1.515807804   1.056227445
