5
charge=-1 charge_a=0 charge_b=-1 selection_a=1-3 selection_b=4-5 scaling=0.8 benchmark_Eint=-10.584 benchmark_unit=kcal/mol group=OH-Ca
  O    0.220311970  -1.715180308  -1.182816955
  H    0.127239907  -0.834508093  -0.716063691
  H    0.137658852  -2.338231956  -0.458174070
  C   -0.034272237   0.388775225   0.159819607
  N   -0.166365103   1.286442182   0.891999326
