17
charge=-1 charge_a=0 charge_b=-1 selection_a=1-10 selection_b=11-17 scaling=1.1 benchmark_Eint=-13.481 benchmark_unit=kcal/mol group=NH-Oa
  H    1.501303915   2.227971099   2.260793423
  H    1.436239570   1.667042798   0.570411896
  H    2.120880796   0.629193866   1.831773170
  H   -0.050738190  -0.069989685   1.310916386
  H   -1.999825333   1.165018396   1.700845124
  H   -1.020379985   2.555874712   2.180660485
  H   -0.995387114   1.983216138   0.493142946
  C    1.333937685   1.354657491   1.619629015
  N    0.038492663   0.762132609   1.907441630
  C   -1.041997311   1.663603451   1.544133525
  C   -0.181790819  -2.011757214  -2.515379887
  C   -0.090556726  -1.021561519  -1.326141207
  O   -0.195216756  -1.549049841  -0.187154086
  O    0.074906512   0.185510746  -1.601254206
  H    0.599965141  -2.768022947  -2.420850352
  H   -0.080311481  -1.498476174  -3.470706243
  H   -1.139542535  -2.534840864  -2.480872876
