24
charge=-1 charge_a=0 charge_b=-1 selection_a=1-10 selection_b=11-24 scaling=0.95 benchmark_Eint=-23.658 benchmark_unit=kcal/mol group=NH-Oa
  H   -0.370035079   1.075181177   3.035390758
  H    0.501786517   0.824074480   5.620597827
  H    2.432465053  -1.091102099   5.547389227
  H    2.600165665  -1.864735989   2.947968132
  N    1.064124017  -0.422930676   2.657797158
  C    0.382094579   0.435950739   3.462246321
  C    0.845802964   0.282969419   4.754943664
  C    1.855225152  -0.717948194   4.717636304
  C    1.960234676  -1.129242638   3.402847373
  H    0.905696174  -0.508108516   1.629759268
  O    0.644947822  -0.623533027   0.044292056
  C   -0.260904527   0.185614090  -0.303518323
  O   -0.892110268   0.976071108   0.420143190
  C   -0.611135651   0.179755253  -1.796227893
  C   -1.596189079   1.032411523  -2.289923807
  C   -1.921770603   1.035587205  -3.640839414
  C   -1.262513969   0.181289830  -4.519540694
  C   -0.277419385  -0.673620371  -4.035317582
  C    0.043929097  -0.672299068  -2.682914299
  H   -2.091447315   1.684674402  -1.585165615
  H   -2.689351719   1.703246701  -4.011668790
  H   -1.514335343   0.181884744  -5.572326497
  H    0.239110866  -1.340685201  -4.714064563
  H    0.804587680  -1.326104728  -2.281992360
