8
charge=-2 charge_a=0 charge_b=-2 selection_a=1-4 selection_b=5-8 scaling=1.5 benchmark_Eint=-17.706 benchmark_unit=kcal/mol group=NH-Oa
  N   -0.957764232   2.208081912  -0.971789512
  H   -0.097926385   1.761728985  -0.541948365
  H   -1.422256081   2.619610307  -0.162614312
  H   -1.438359052   1.305126400  -1.073983644
  C    0.779592388  -1.239858830   0.645890550
  O    1.425549152  -0.093694830   0.618314912
  O   -0.377349455  -1.335684258   0.053643210
  O    1.296294859  -2.251267736   1.256728792
