17
charge=-1 charge_a=0 charge_b=-1 selection_a=1-10 selection_b=11-17 scaling=1.05 benchmark_Eint=-13.896 benchmark_unit=kcal/mol group=NH-Oa
  H    1.501303915   2.227971099   2.260793423
  H    1.436239570   1.667042798   0.570411896
  H    2.120880796   0.629193866   1.831773170
  H   -0.050738190  -0.069989685   1.310916386
  H   -1.999825333   1.165018396   1.700845124
  H   -1.020379985   2.555874712   2.180660485
  H   -0.995387114   1.983216138   0.493142946
  C    1.333937685   1.354657491   1.619629015
  N    0.038492663   0.762132609   1.907441630
  C   -1.041997311   1.663603451   1.544133525
  C   -0.175223612  -1.944527207  -2.447285774
  C   -0.083989519  -0.954331512  -1.258047094
  O   -0.188649549  -1.481819834  -0.119059973
  O    0.081473719   0.252740753  -1.533160093
  H    0.606532348  -2.700792940  -2.352756239
  H   -0.073744274  -1.431246167  -3.402612130
  H   -1.132975328  -2.467610857  -2.412778763
