14
charge=-1 charge_a=0 charge_b=-1 selection_a=1-7 selection_b=8-14 scaling=1.0 benchmark_Eint=-11.831 benchmark_unit=kcal/mol group=NH-Oa
  N   -0.606951804   1.038348431   2.166071342
  H   -0.533234231   0.252432166   1.507307835
  H   -0.212765513   0.715382143   3.041135380
  C    0.184405151   2.147641202   1.638723376
  H   -0.041109868   3.076200770   2.175083107
  H    1.273061267   1.994357719   1.679254575
  H   -0.067652837   2.275873013   0.587791633
  C    0.370582650  -1.837427018  -1.980333205
  C    0.080290667  -0.735487922  -0.927243011
  O   -0.160267873  -1.161923891   0.232637903
  O    0.106765515   0.448519750  -1.323305830
  H   -0.516095802  -2.463885810  -2.099547123
  H    1.175160900  -2.484249679  -1.625423137
  H    0.640806387  -1.407384166  -2.944051316
