14
charge=-1 charge_a=0 charge_b=-1 selection_a=1-7 selection_b=8-14 scaling=0.8 benchmark_Eint=-6.922 benchmark_unit=kcal/mol group=NH-Oa
  N   -0.606951804   1.038348431   2.166071342
  H   -0.533234231   0.252432166   1.507307835
  H   -0.212765513   0.715382143   3.041135380
  C    0.184405151   2.147641202   1.638723376
  H   -0.041109868   3.076200770   2.175083107
  H    1.273061267   1.994357719   1.679254575
  H   -0.067652837   2.275873013   0.587791633
  C    0.295989378  -1.554555807  -1.725399219
  C    0.005697395  -0.452616711  -0.672309025
  O   -0.234861145  -0.879052680   0.487571889
  O    0.032172243   0.731390961  -1.068371844
  H   -0.590689074  -2.181014599  -1.844613137
  H    1.100567628  -2.201378468  -1.370489151
  H    0.566213115  -1.124512955  -2.689117330
