17
charge=-1 charge_a=0 charge_b=-1 selection_a=1-10 selection_b=11-17 scaling=2.0 benchmark_Eint=-4.6 benchmark_unit=kcal/mol group=NH-Oa
  H    1.501303915   2.227971099   2.260793423
  H    1.436239570   1.667042798   0.570411896
  H    2.120880796   0.629193866   1.831773170
  H   -0.050738190  -0.069989685   1.310916386
  H   -1.999825333   1.165018396   1.700845124
  H   -1.020379985   2.555874712   2.180660485
  H   -0.995387114   1.983216138   0.493142946
  C    1.333937685   1.354657491   1.619629015
  N    0.038492663   0.762132609   1.907441630
  C   -1.041997311   1.663603451   1.544133525
  C   -0.300000555  -3.221897342  -3.741073909
  C   -0.208766462  -2.231701647  -2.551835229
  O   -0.313426492  -2.759189969  -1.412848108
  O   -0.043303224  -1.024629382  -2.826948228
  H    0.481755405  -3.978163075  -3.646544374
  H   -0.198521217  -2.708616302  -4.696400265
  H   -1.257752271  -3.744980992  -3.706566898
