11
charge=-1 charge_a=0 charge_b=-1 selection_a=1-7 selection_b=8-11 scaling=2.0 benchmark_Eint=-3.418 benchmark_unit=kcal/mol group=NH-Oa
  N   -0.854266185   0.803187264   2.119850253
  H   -0.991210480   0.258249543   1.265754170
  H   -0.095399362   0.320624167   2.587178661
  C   -0.368012927   2.121626769   1.710757164
  H   -0.109185501   2.718933757   2.589571578
  H    0.501790035   2.081653041   1.045350921
  H   -1.164536295   2.650744310   1.184322100
  N    0.388170629  -1.571098938  -2.806978170
  O   -0.813045118  -1.435845567  -2.439810100
  O    0.645762628  -2.118727878  -3.899316440
  O    1.313775102  -1.153552231  -2.069617433
