10
charge=-1 charge_a=0 charge_b=-1 selection_a=1-7 selection_b=8-10 scaling=1.0 benchmark_Eint=-11.355 benchmark_unit=kcal/mol group=NH-Oa
  N   -1.150609447   0.944288167   1.181864463
  H   -1.061002325   0.466633337   0.278147174
  H   -0.959270359   0.195618599   1.838689627
  C   -0.045648494   1.898927511   1.259905897
  H   -0.013354822   2.367082043   2.248215652
  H    0.936776837   1.454342755   1.056435756
  H   -0.203178602   2.695428743   0.530007492
  N    0.690493413  -1.077760493  -1.139912122
  O   -0.287795829  -0.330401967  -1.412081997
  O    0.806774707  -1.429744314   0.055125779
