17
charge=-1 charge_a=0 charge_b=-1 selection_a=1-10 selection_b=11-17 scaling=1.0 benchmark_Eint=-26.375 benchmark_unit=kcal/mol group=NH-Oa
  H   -1.120795091  -0.374550344   1.532828578
  H    0.093921493  -1.850146516   3.498516290
  H    2.613937650  -2.324395522   2.587993638
  H    2.753821875  -1.116358961   0.157205514
  N    0.739736946  -0.571364763   0.564864947
  C   -0.125907820  -0.779096767   1.592351951
  C    0.517690796  -1.524195920   2.563038967
  C    1.834848578  -1.772559995   2.088074335
  C    1.931562536  -1.166522302   0.849409007
  H    0.499083290  -0.030246327  -0.304008844
  C   -1.548665996   2.054002106  -2.838034723
  C   -1.084314638   1.243083970  -1.609998566
  O    0.110669204   0.825492991  -1.670785336
  O   -1.896682097   1.068042606  -0.684417620
  H   -1.461036584   1.439036288  -3.735447397
  H   -0.894342284   2.916659657  -2.975012169
  H   -2.577889236   2.389181602  -2.723395346
