18
charge=-1 charge_a=0 charge_b=-1 selection_a=1-4 selection_b=5-18 scaling=0.8 benchmark_Eint=-6.128 benchmark_unit=kcal/mol group=NH-Oa
  N   -1.568832222   4.286467343   0.387366758
  H   -1.193492076   3.569273049  -0.241343928
  H   -1.378923015   3.867019176   1.293387299
  H   -2.576783041   4.242000738   0.277819100
  O   -0.594868138   2.109873784  -0.723856038
  C   -0.395273433   1.441170978   0.319010160
  O   -0.488247129   1.805574852   1.510472023
  C    0.018599612  -0.027410850   0.095026844
  C    0.266041325  -0.868141572   1.178383364
  C    0.638761451  -2.193036915   0.982670227
  C    0.770053483  -2.698155110  -0.307554576
  C    0.525492679  -1.866345121  -1.396192192
  C    0.153046041  -0.542397919  -1.192814988
  H    0.156614745  -0.448602815   2.168285791
  H    0.827926806  -2.834832646   1.834531944
  H    1.060334529  -3.729585083  -0.463046525
  H    0.626179751  -2.252844159  -2.403077720
  H   -0.042683393   0.125912932  -2.019100276
