14
charge=-1 charge_a=0 charge_b=-1 selection_a=1-7 selection_b=8-14 scaling=0.95 benchmark_Eint=-11.644 benchmark_unit=kcal/mol group=NH-Oa
  N   -0.606951804   1.038348431   2.166071342
  H   -0.533234231   0.252432166   1.507307835
  H   -0.212765513   0.715382143   3.041135380
  C    0.184405151   2.147641202   1.638723376
  H   -0.041109868   3.076200770   2.175083107
  H    1.273061267   1.994357719   1.679254575
  H   -0.067652837   2.275873013   0.587791633
  C    0.351934332  -1.766709215  -1.916599708
  C    0.061642349  -0.664770119  -0.863509514
  O   -0.178916191  -1.091206088   0.296371400
  O    0.088117197   0.519237553  -1.259572333
  H   -0.534744120  -2.393168007  -2.035813626
  H    1.156512582  -2.413531876  -1.561689640
  H    0.622158069  -1.336666363  -2.880317819
