24
charge=-1 charge_a=0 charge_b=-1 selection_a=1-10 selection_b=11-24 scaling=2.0 benchmark_Eint=-9.495 benchmark_unit=kcal/mol group=NH-Oa
  H   -0.370035079   1.075181177   3.035390758
  H    0.501786517   0.824074480   5.620597827
  H    2.432465053  -1.091102099   5.547389227
  H    2.600165665  -1.864735989   2.947968132
  N    1.064124017  -0.422930676   2.657797158
  C    0.382094579   0.435950739   3.462246321
  C    0.845802964   0.282969419   4.754943664
  C    1.855225152  -0.717948194   4.717636304
  C    1.960234676  -1.129242638   3.402847373
  H    0.905696174  -0.508108516   1.629759268
  O    0.356752276  -0.751107486  -1.708066442
  C   -0.549100073   0.058039631  -2.055876821
  O   -1.180305814   0.848496649  -1.332215308
  C   -0.899331197   0.052180794  -3.548586391
  C   -1.884384625   0.904837064  -4.042282305
  C   -2.209966149   0.908012746  -5.393197912
  C   -1.550709515   0.053715371  -6.271899192
  C   -0.565614931  -0.801194830  -5.787676080
  C   -0.244266449  -0.799873527  -4.435272797
  H   -2.379642861   1.557099943  -3.337524113
  H   -2.977547265   1.575672242  -5.764027288
  H   -1.802530889   0.054310285  -7.324684995
  H   -0.049084680  -1.468259660  -6.466423061
  H    0.516392134  -1.453679187  -4.034350858
