17
charge=-1 charge_a=0 charge_b=-1 selection_a=1-10 selection_b=11-17 scaling=1.5 benchmark_Eint=-17.635 benchmark_unit=kcal/mol group=NH-Oa
  H   -1.120795091  -0.374550344   1.532828578
  H    0.093921493  -1.850146516   3.498516290
  H    2.613937650  -2.324395522   2.587993638
  H    2.753821875  -1.116358961   0.157205514
  N    0.739736946  -0.571364763   0.564864947
  C   -0.125907820  -0.779096767   1.592351951
  C    0.517690796  -1.524195920   2.563038967
  C    1.834848578  -1.772559995   2.088074335
  C    1.931562536  -1.166522302   0.849409007
  H    0.499083290  -0.030246327  -0.304008844
  C   -1.742873039   2.481871765  -3.521422969
  C   -1.278521681   1.670953629  -2.293386812
  O   -0.083537839   1.253362650  -2.354173582
  O   -2.090889140   1.495912265  -1.367805866
  H   -1.655243627   1.866905947  -4.418835643
  H   -1.088549327   3.344529316  -3.658400415
  H   -2.772096279   2.817051261  -3.406783592
