21
charge=-1 charge_a=0 charge_b=-1 selection_a=1-7 selection_b=8-21 scaling=1.0 benchmark_Eint=-11.577 benchmark_unit=kcal/mol group=NH-Oa
  N   -0.058290244   3.597724931   2.154499814
  H   -0.464543153   2.688619784   1.912354285
  H    0.849708328   3.346589145   2.529495935
  C    0.164431441   4.305395953   0.892250400
  H    0.694327687   5.245436452   1.072085274
  H    0.729740247   3.719328236   0.158828274
  H   -0.799722896   4.559344029   0.446937969
  O   -0.874878938   0.933772766   1.038965588
  C    0.161356854   0.509998905   0.470194623
  O    1.297129431   1.027361189   0.436804080
  C    0.003315596  -0.823958132  -0.285040116
  C    1.084447042  -1.389928871  -0.957674612
  C    0.948515361  -2.592680758  -1.641266845
  C   -0.278294484  -3.249606370  -1.661138735
  C   -1.364047586  -2.692372684  -0.992296567
  C   -1.220912553  -1.489062691  -0.310834038
  H    2.024415794  -0.857716093  -0.924991456
  H    1.797631835  -3.020823441  -2.159864013
  H   -0.387119810  -4.186510813  -2.192728462
  H   -2.321673611  -3.198362004  -1.003848258
  H   -2.046717537  -1.033536414   0.216542024
