24
charge=-1 charge_a=0 charge_b=-1 selection_a=1-10 selection_b=11-24 scaling=1.1 benchmark_Eint=-23.081 benchmark_unit=kcal/mol group=NH-Oa
  H   -0.370035079   1.075181177   3.035390758
  H    0.501786517   0.824074480   5.620597827
  H    2.432465053  -1.091102099   5.547389227
  H    2.600165665  -1.864735989   2.947968132
  N    1.064124017  -0.422930676   2.657797158
  C    0.382094579   0.435950739   3.462246321
  C    0.845802964   0.282969419   4.754943664
  C    1.855225152  -0.717948194   4.717636304
  C    1.960234676  -1.129242638   3.402847373
  H    0.905696174  -0.508108516   1.629759268
  O    0.603777030  -0.641757950  -0.206044872
  C   -0.302075319   0.167389168  -0.553855252
  O   -0.933281060   0.957846186   0.169806262
  C   -0.652306443   0.161530330  -2.046564822
  C   -1.637359871   1.014186600  -2.540260736
  C   -1.962941395   1.017362282  -3.891176342
  C   -1.303684761   0.163064908  -4.769877622
  C   -0.318590177  -0.691845294  -4.285654510
  C    0.002758305  -0.690523990  -2.933251228
  H   -2.132618107   1.666449480  -1.835502544
  H   -2.730522511   1.685021778  -4.262005718
  H   -1.555506135   0.163659822  -5.822663426
  H    0.197940074  -1.358910124  -4.964401492
  H    0.763416888  -1.344329650  -2.532329288
