21
charge=-1 charge_a=0 charge_b=-1 selection_a=1-7 selection_b=8-21 scaling=0.9 benchmark_Eint=-10.806 benchmark_unit=kcal/mol group=NH-Oa
  N   -0.058290244   3.597724931   2.154499814
  H   -0.464543153   2.688619784   1.912354285
  H    0.849708328   3.346589145   2.529495935
  C    0.164431441   4.305395953   0.892250400
  H    0.694327687   5.245436452   1.072085274
  H    0.729740247   3.719328236   0.158828274
  H   -0.799722896   4.559344029   0.446937969
  O   -0.833845360   1.109257468   1.126304458
  C    0.202390432   0.685483607   0.557533493
  O    1.338163010   1.202845891   0.524142950
  C    0.044349174  -0.648473430  -0.197701246
  C    1.125480620  -1.214444169  -0.870335742
  C    0.989548940  -2.417196056  -1.553927975
  C   -0.237260906  -3.074121668  -1.573799865
  C   -1.323014008  -2.516887982  -0.904957697
  C   -1.179878974  -1.313577989  -0.223495168
  H    2.065449372  -0.682231391  -0.837652586
  H    1.838665414  -2.845338739  -2.072525143
  H   -0.346086232  -4.011026111  -2.105389592
  H   -2.280640032  -3.022877302  -0.916509388
  H   -2.005683958  -0.858051712   0.303880894
