17
charge=-1 charge_a=0 charge_b=-1 selection_a=1-10 selection_b=11-17 scaling=0.8 benchmark_Eint=-19.683 benchmark_unit=kcal/mol group=NH-Oa
  H   -1.120795091  -0.374550344   1.532828578
  H    0.093921493  -1.850146516   3.498516290
  H    2.613937650  -2.324395522   2.587993638
  H    2.753821875  -1.116358961   0.157205514
  N    0.739736946  -0.571364763   0.564864947
  C   -0.125907820  -0.779096767   1.592351951
  C    0.517690796  -1.524195920   2.563038967
  C    1.834848578  -1.772559995   2.088074335
  C    1.931562536  -1.166522302   0.849409007
  H    0.499083290  -0.030246327  -0.304008844
  C   -1.470983179   1.882854242  -2.564679425
  C   -1.006631821   1.071936106  -1.336643268
  O    0.188352021   0.654345127  -1.397430038
  O   -1.818999280   0.896894742  -0.411062322
  H   -1.383353767   1.267888424  -3.462092099
  H   -0.816659467   2.745511793  -2.701656871
  H   -2.500206419   2.218033738  -2.450040048
