10
charge=-2 charge_a=0 charge_b=-2 selection_a=1-4 selection_b=5-10 scaling=2.0 benchmark_Eint=-6.803 benchmark_unit=kcal/mol group=NH-Oa
  N   -1.310918316   3.185548960   0.254764294
  H   -0.969764711   2.646200090  -0.552684681
  H   -0.918223695   2.557446092   0.968522390
  H   -2.306494690   2.974871234   0.276112173
  C    0.940411016  -1.766229687  -0.150294843
  O    0.750885086  -1.134724044  -1.231321113
  O    0.839327729  -1.282592361   1.015293656
  C    1.327592299  -3.277113546  -0.265135848
  O    2.557812056  -3.542894139  -0.332679661
  O    0.373206011  -4.101055840  -0.280211830
