24
charge=-1 charge_a=0 charge_b=-1 selection_a=1-10 selection_b=11-24 scaling=0.85 benchmark_Eint=-20.81 benchmark_unit=kcal/mol group=NH-Oa
  H   -0.370035079   1.075181177   3.035390758
  H    0.501786517   0.824074480   5.620597827
  H    2.432465053  -1.091102099   5.547389227
  H    2.600165665  -1.864735989   2.947968132
  N    1.064124017  -0.422930676   2.657797158
  C    0.382094579   0.435950739   3.462246321
  C    0.845802964   0.282969419   4.754943664
  C    1.855225152  -0.717948194   4.717636304
  C    1.960234676  -1.129242638   3.402847373
  H    0.905696174  -0.508108516   1.629759268
  O    0.672395017  -0.611383078   0.211183341
  C   -0.233457332   0.197764039  -0.136627038
  O   -0.864663073   0.988221057   0.587034475
  C   -0.583688456   0.191905202  -1.629336608
  C   -1.568741884   1.044561472  -2.123032522
  C   -1.894323408   1.047737154  -3.473948129
  C   -1.235066774   0.193439779  -4.352649409
  C   -0.249972190  -0.661470422  -3.868426297
  C    0.071376292  -0.660149119  -2.516023014
  H   -2.064000120   1.696824351  -1.418274330
  H   -2.661904524   1.715396650  -3.844777505
  H   -1.486888148   0.194034693  -5.405435212
  H    0.266558061  -1.328535252  -4.547173278
  H    0.832034875  -1.313954779  -2.115101075
