17
charge=-1 charge_a=0 charge_b=-1 selection_a=1-10 selection_b=11-17 scaling=0.85 benchmark_Eint=-11.673 benchmark_unit=kcal/mol group=NH-Oa
  H    1.501303915   2.227971099   2.260793423
  H    1.436239570   1.667042798   0.570411896
  H    2.120880796   0.629193866   1.831773170
  H   -0.050738190  -0.069989685   1.310916386
  H   -1.999825333   1.165018396   1.700845124
  H   -1.020379985   2.555874712   2.180660485
  H   -0.995387114   1.983216138   0.493142946
  C    1.333937685   1.354657491   1.619629015
  N    0.038492663   0.762132609   1.907441630
  C   -1.041997311   1.663603451   1.544133525
  C   -0.148954781  -1.675607179  -2.174909325
  C   -0.057720688  -0.685411484  -0.985670645
  O   -0.162380718  -1.212899806   0.153316476
  O    0.107742550   0.521660781  -1.260783644
  H    0.632801179  -2.431872912  -2.080379790
  H   -0.047475443  -1.162326139  -3.130235681
  H   -1.106706497  -2.198690829  -2.140402314
