17
charge=-1 charge_a=0 charge_b=-1 selection_a=1-10 selection_b=11-17 scaling=1.5 benchmark_Eint=-8.462 benchmark_unit=kcal/mol group=NH-Oa
  H    1.501303915   2.227971099   2.260793423
  H    1.436239570   1.667042798   0.570411896
  H    2.120880796   0.629193866   1.831773170
  H   -0.050738190  -0.069989685   1.310916386
  H   -1.999825333   1.165018396   1.700845124
  H   -1.020379985   2.555874712   2.180660485
  H   -0.995387114   1.983216138   0.493142946
  C    1.333937685   1.354657491   1.619629015
  N    0.038492663   0.762132609   1.907441630
  C   -1.041997311   1.663603451   1.544133525
  C   -0.234328480  -2.549597271  -3.060132786
  C   -0.143094386  -1.559401576  -1.870894106
  O   -0.247754416  -2.086889898  -0.731906984
  O    0.022368852  -0.352329311  -2.146007104
  H    0.547427480  -3.305863004  -2.965603250
  H   -0.132849142  -2.036316231  -4.015459142
  H   -1.192080196  -3.072680921  -3.025625774
