24
charge=-1 charge_a=0 charge_b=-1 selection_a=1-10 selection_b=11-24 scaling=0.9 benchmark_Eint=-22.734 benchmark_unit=kcal/mol group=NH-Oa
  H   -0.370035079   1.075181177   3.035390758
  H    0.501786517   0.824074480   5.620597827
  H    2.432465053  -1.091102099   5.547389227
  H    2.600165665  -1.864735989   2.947968132
  N    1.064124017  -0.422930676   2.657797158
  C    0.382094579   0.435950739   3.462246321
  C    0.845802964   0.282969419   4.754943664
  C    1.855225152  -0.717948194   4.717636304
  C    1.960234676  -1.129242638   3.402847373
  H    0.905696174  -0.508108516   1.629759268
  O    0.658671420  -0.617458052   0.127737698
  C   -0.247180929   0.191689064  -0.220072680
  O   -0.878386670   0.982146082   0.503588832
  C   -0.597412053   0.185830228  -1.712782250
  C   -1.582465481   1.038486498  -2.206478164
  C   -1.908047005   1.041662180  -3.557393772
  C   -1.248790371   0.187364804  -4.436095052
  C   -0.263695787  -0.667545396  -3.951871940
  C    0.057652695  -0.666224094  -2.599468656
  H   -2.077723717   1.690749376  -1.501719972
  H   -2.675628121   1.709321676  -3.928223148
  H   -1.500611745   0.187959718  -5.488880854
  H    0.252834464  -1.334610226  -4.630618920
  H    0.818311278  -1.320029754  -2.198546718
