8
charge=-2 charge_a=0 charge_b=-2 selection_a=1-4 selection_b=5-8 scaling=1.05 benchmark_Eint=-25.859 benchmark_unit=kcal/mol group=NH-Oa
  N   -0.957764232   2.208081912  -0.971789512
  H   -0.097926385   1.761728985  -0.541948365
  H   -1.422256081   2.619610307  -0.162614312
  H   -1.438359052   1.305126400  -1.073983644
  C    0.322549727  -0.683231686   0.297811567
  O    0.968506491   0.462932314   0.270235929
  O   -0.834392116  -0.779057114  -0.294435772
  O    0.839252198  -1.694640592   0.908649810
