10
charge=-2 charge_a=0 charge_b=-2 selection_a=1-4 selection_b=5-10 scaling=0.95 benchmark_Eint=-18.106 benchmark_unit=kcal/mol group=NH-Oa
  N   -1.310918316   3.185548960   0.254764294
  H   -0.969764711   2.646200090  -0.552684681
  H   -0.918223695   2.557446092   0.968522390
  H   -2.306494690   2.974871234   0.276112173
  C    0.022062623   0.245930708   0.016536321
  O   -0.167463307   0.877436351  -1.064489949
  O   -0.079020664   0.729568034   1.182124820
  C    0.409243906  -1.264953151  -0.098304684
  O    1.639463663  -1.530733744  -0.165848497
  O   -0.545142382  -2.088895445  -0.113380666
