8
charge=-2 charge_a=0 charge_b=-2 selection_a=1-4 selection_b=5-8 scaling=2.0 benchmark_Eint=-10.695 benchmark_unit=kcal/mol group=NH-Oa
  N   -0.957764232   2.208081912  -0.971789512
  H   -0.097926385   1.761728985  -0.541948365
  H   -1.422256081   2.619610307  -0.162614312
  H   -1.438359052   1.305126400  -1.073983644
  C    1.287417567  -1.858333435   1.032644975
  O    1.933374331  -0.712169435   1.005069337
  O    0.130475724  -1.954158863   0.440397636
  O    1.804120038  -2.869742341   1.643483218
