18
charge=-1 charge_a=0 charge_b=-1 selection_a=1-4 selection_b=5-18 scaling=0.9 benchmark_Eint=-9.531 benchmark_unit=kcal/mol group=NH-Oa
  N   -1.568832222   4.286467343   0.387366758
  H   -1.193492076   3.569273049  -0.241343928
  H   -1.378923015   3.867019176   1.293387299
  H   -2.576783041   4.242000738   0.277819100
  O   -0.520040146   1.927448876  -0.784170051
  C   -0.320445441   1.258746070   0.258696147
  O   -0.413419137   1.623149944   1.450158010
  C    0.093427604  -0.209835758   0.034712831
  C    0.340869317  -1.050566480   1.118069351
  C    0.713589443  -2.375461823   0.922356214
  C    0.844881475  -2.880580018  -0.367868589
  C    0.600320671  -2.048770029  -1.456506205
  C    0.227874033  -0.724822827  -1.253129001
  H    0.231442737  -0.631027723   2.107971778
  H    0.902754798  -3.017257554   1.774217931
  H    1.135162521  -3.912009991  -0.523360538
  H    0.701007743  -2.435269067  -2.463391733
  H    0.032144599  -0.056511976  -2.079414289
