14
charge=-1 charge_a=0 charge_b=-1 selection_a=1-7 selection_b=8-14 scaling=1.25 benchmark_Eint=-9.687 benchmark_unit=kcal/mol group=NH-Oa
  N   -0.606951804   1.038348431   2.166071342
  H   -0.533234231   0.252432166   1.507307835
  H   -0.212765513   0.715382143   3.041135380
  C    0.184405151   2.147641202   1.638723376
  H   -0.041109868   3.076200770   2.175083107
  H    1.273061267   1.994357719   1.679254575
  H   -0.067652837   2.275873013   0.587791633
  C    0.463824240  -2.191016032  -2.299000688
  C    0.173532256  -1.089076936  -1.245910494
  O   -0.067026284  -1.515512905  -0.086029580
  O    0.200007104   0.094930736  -1.641973313
  H   -0.422854212  -2.817474824  -2.418214606
  H    1.268402490  -2.837838693  -1.944090620
  H    0.734047976  -1.760973180  -3.262718799
