18
charge=-1 charge_a=0 charge_b=-1 selection_a=1-4 selection_b=5-18 scaling=1.25 benchmark_Eint=-8.405 benchmark_unit=kcal/mol group=NH-Oa
  N   -1.568832222   4.286467343   0.387366758
  H   -1.193492076   3.569273049  -0.241343928
  H   -1.378923015   3.867019176   1.293387299
  H   -2.576783041   4.242000738   0.277819100
  O   -0.258142174   1.288961698  -0.995269099
  C   -0.058547468   0.620258892   0.047597099
  O   -0.151521164   0.984662766   1.239058962
  C    0.355325576  -0.848322936  -0.176386217
  C    0.602767290  -1.689053658   0.906970303
  C    0.975487416  -3.013949001   0.711257166
  C    1.106779448  -3.519067196  -0.578967637
  C    0.862218644  -2.687257207  -1.667605253
  C    0.489772006  -1.363310005  -1.464228049
  H    0.493340710  -1.269514901   1.896872730
  H    1.164652770  -3.655744732   1.563118883
  H    1.397060494  -4.550497169  -0.734459586
  H    0.962905716  -3.073756245  -2.674490781
  H    0.294042572  -0.694999154  -2.290513337
