13
charge=-1 charge_a=0 charge_b=-1 selection_a=1-10 selection_b=11-13 scaling=1.25 benchmark_Eint=-20.567 benchmark_unit=kcal/mol group=NH-Oa
  H   -1.683987059  -0.701266233   1.912212306
  H    0.247242209  -1.956394114   3.355668755
  H    2.540972236  -1.664110735   1.921942793
  H    1.829295407  -0.241611583  -0.304757192
  N   -0.092597389  -0.297390138   0.562451903
  C   -0.636161976  -0.817438206   1.698034433
  C    0.364092284  -1.448679327   2.412429037
  C    1.562447740  -1.295441620   1.662561745
  C    1.236846103  -0.578426015   0.526877683
  H   -0.600066395   0.237122991  -0.178244393
  N   -1.099642662   1.723525664  -2.603919328
  O   -1.795212589   1.325353750  -1.621330343
  O    0.108612240   1.430511659  -2.570355752
