21
charge=-1 charge_a=0 charge_b=-1 selection_a=1-7 selection_b=8-21 scaling=1.5 benchmark_Eint=-7.042 benchmark_unit=kcal/mol group=NH-Oa
  N   -0.058290244   3.597724931   2.154499814
  H   -0.464543153   2.688619784   1.912354285
  H    0.849708328   3.346589145   2.529495935
  C    0.164431441   4.305395953   0.892250400
  H    0.694327687   5.245436452   1.072085274
  H    0.729740247   3.719328236   0.158828274
  H   -0.799722896   4.559344029   0.446937969
  O   -1.080046830   0.056349257   0.602271240
  C   -0.043811039  -0.367424604   0.033500274
  O    1.091961538   0.149937680   0.000109731
  C   -0.201852296  -1.701381641  -0.721734464
  C    0.879279150  -2.267352380  -1.394368960
  C    0.743347468  -3.470104267  -2.077961194
  C   -0.483462376  -4.127029879  -2.097833084
  C   -1.569215478  -3.569796193  -1.428990916
  C   -1.426080446  -2.366486200  -0.747528386
  H    1.819247902  -1.735139602  -1.361685804
  H    1.592463942  -3.898246950  -2.596558362
  H   -0.592287702  -5.063934322  -2.629422810
  H   -2.526841504  -4.075785513  -1.440542606
  H   -2.251885430  -1.910959923  -0.220152324
