24
charge=-1 charge_a=0 charge_b=-1 selection_a=1-10 selection_b=11-24 scaling=1.05 benchmark_Eint=-23.642 benchmark_unit=kcal/mol group=NH-Oa
  H   -0.370035079   1.075181177   3.035390758
  H    0.501786517   0.824074480   5.620597827
  H    2.432465053  -1.091102099   5.547389227
  H    2.600165665  -1.864735989   2.947968132
  N    1.064124017  -0.422930676   2.657797158
  C    0.382094579   0.435950739   3.462246321
  C    0.845802964   0.282969419   4.754943664
  C    1.855225152  -0.717948194   4.717636304
  C    1.960234676  -1.129242638   3.402847373
  H    0.905696174  -0.508108516   1.629759268
  O    0.617500628  -0.635682975  -0.122599230
  C   -0.288351721   0.173464142  -0.470409609
  O   -0.919557462   0.963921160   0.253251904
  C   -0.638582845   0.167605305  -1.963119179
  C   -1.623636273   1.020261575  -2.456815093
  C   -1.949217797   1.023437257  -3.807730700
  C   -1.289961163   0.169139882  -4.686431980
  C   -0.304866579  -0.685770319  -4.202208868
  C    0.016481903  -0.684449016  -2.849805585
  H   -2.118894509   1.672524454  -1.752056901
  H   -2.716798913   1.691096753  -4.178560076
  H   -1.541782537   0.169734796  -5.739217783
  H    0.211663672  -1.352835149  -4.880955849
  H    0.777140486  -1.338254676  -2.448883646
