17
charge=-1 charge_a=0 charge_b=-1 selection_a=1-14 selection_b=15-17 scaling=1.1 benchmark_Eint=-19.344 benchmark_unit=kcal/mol group=NH-Oa
  H    1.246426695  -1.198715822  -0.208099004
  H    3.962164762   2.132766165  -0.263666245
  H    3.543732916  -0.315717601  -0.158161343
  H   -0.271560462   2.797008644  -0.469125302
  H   -1.136153783  -0.753762358  -0.129301209
  H    2.019056389   3.675098184  -0.412545447
  H   -1.719256648   0.839237937  -0.250417433
  C    2.953254092   1.745709880  -0.288864099
  C    2.711199273   0.372923317  -0.232246909
  C    1.424939460  -0.133949889  -0.262719355
  C    0.309660813   0.727148470  -0.354052753
  C    0.565584336   2.113045269  -0.403376487
  C    1.860944979   2.604276083  -0.372321459
  N   -0.948269093   0.219514963  -0.426699831
  N   -2.637485944  -2.727159550   0.897776864
  O   -1.449640635  -2.612077935   0.477116094
  O   -3.346281977  -1.704113328   0.823803477
