8
charge=-2 charge_a=0 charge_b=-2 selection_a=1-4 selection_b=5-8 scaling=0.85 benchmark_Eint=-23.023 benchmark_unit=kcal/mol group=NH-Oa
  N   -0.957764232   2.208081912  -0.971789512
  H   -0.097926385   1.761728985  -0.541948365
  H   -1.422256081   2.619610307  -0.162614312
  H   -1.438359052   1.305126400  -1.073983644
  C    0.119419655  -0.435841844   0.143109796
  O    0.765376419   0.710322156   0.115534158
  O   -1.037522188  -0.531667272  -0.449137543
  O    0.636122126  -1.447250750   0.753948039
