17
charge=-1 charge_a=0 charge_b=-1 selection_a=1-10 selection_b=11-17 scaling=0.95 benchmark_Eint=-13.903 benchmark_unit=kcal/mol group=NH-Oa
  H    1.501303915   2.227971099   2.260793423
  H    1.436239570   1.667042798   0.570411896
  H    2.120880796   0.629193866   1.831773170
  H   -0.050738190  -0.069989685   1.310916386
  H   -1.999825333   1.165018396   1.700845124
  H   -1.020379985   2.555874712   2.180660485
  H   -0.995387114   1.983216138   0.493142946
  C    1.333937685   1.354657491   1.619629015
  N    0.038492663   0.762132609   1.907441630
  C   -1.041997311   1.663603451   1.544133525
  C   -0.162089196  -1.810067193  -2.311097550
  C   -0.070855103  -0.819871498  -1.121858870
  O   -0.175515133  -1.347359820   0.017128251
  O    0.094608135   0.387200767  -1.396971869
  H    0.619666764  -2.566332926  -2.216568015
  H   -0.060609858  -1.296786153  -3.266423906
  H   -1.119840912  -2.333150843  -2.276590539
