14
charge=-1 charge_a=0 charge_b=-1 selection_a=1-7 selection_b=8-14 scaling=1.5 benchmark_Eint=-6.96 benchmark_unit=kcal/mol group=NH-Oa
  N   -0.606951804   1.038348431   2.166071342
  H   -0.533234231   0.252432166   1.507307835
  H   -0.212765513   0.715382143   3.041135380
  C    0.184405151   2.147641202   1.638723376
  H   -0.041109868   3.076200770   2.175083107
  H    1.273061267   1.994357719   1.679254575
  H   -0.067652837   2.275873013   0.587791633
  C    0.557065829  -2.544605046  -2.617668171
  C    0.266773846  -1.442665950  -1.564577977
  O    0.026215306  -1.869101920  -0.404697063
  O    0.293248694  -0.258658278  -1.960640796
  H   -0.329612623  -3.171063838  -2.736882089
  H    1.361644079  -3.191427708  -2.262758103
  H    0.827289566  -2.114562194  -3.581386282
