11
charge=-1 charge_a=0 charge_b=-1 selection_a=1-7 selection_b=8-11 scaling=1.25 benchmark_Eint=-8.389 benchmark_unit=kcal/mol group=NH-Oa
  N   -0.854266185   0.803187264   2.119850253
  H   -0.991210480   0.258249543   1.265754170
  H   -0.095399362   0.320624167   2.587178661
  C   -0.368012927   2.121626769   1.710757164
  H   -0.109185501   2.718933757   2.589571578
  H    0.501790035   2.081653041   1.045350921
  H   -1.164536295   2.650744310   1.184322100
  N    0.321358618  -0.935813272  -1.417391569
  O   -0.879857129  -0.800559901  -1.050223499
  O    0.578950617  -1.483442212  -2.509729839
  O    1.246963091  -0.518266565  -0.680030832
