12
charge=-1 charge_a=0 charge_b=-1 selection_a=1-10 selection_b=11-12 scaling=1.5 benchmark_Eint=-14.714 benchmark_unit=kcal/mol group=NH-Oa
  H    1.522103724   0.965415335   1.673467140
  H    1.373392111   1.456151161  -0.022743118
  H    2.085283590  -0.113160783   0.382507302
  H   -0.079615452  -0.582150378  -0.353430462
  H   -2.012319786   0.316365905   0.598123232
  H   -1.107379052   1.240920607   1.811944898
  H   -1.037278444   1.708899642   0.104270647
  C    1.296726124   0.586839770   0.663516641
  N    0.023776053  -0.079751707   0.610135817
  C   -1.071234704   0.835039313   0.788192247
  O   -0.286042666  -1.474970337  -2.495819157
  H   -0.380581486  -2.426404584  -2.394252210
