8
charge=-2 charge_a=0 charge_b=-2 selection_a=1-4 selection_b=5-8 scaling=0.9 benchmark_Eint=-24.944 benchmark_unit=kcal/mol group=NH-Oa
  N   -0.957764232   2.208081912  -0.971789512
  H   -0.097926385   1.761728985  -0.541948365
  H   -1.422256081   2.619610307  -0.162614312
  H   -1.438359052   1.305126400  -1.073983644
  C    0.170202173  -0.497689304   0.181785239
  O    0.816158937   0.648474696   0.154209601
  O   -0.986739670  -0.593514732  -0.410462100
  O    0.686904644  -1.509098210   0.792623482
