11
charge=-1 charge_a=0 charge_b=-1 selection_a=1-4 selection_b=5-11 scaling=2.0 benchmark_Eint=-3.017 benchmark_unit=kcal/mol group=NH-Oa
  N   -1.616937694   2.084062706  -1.212227733
  H   -0.951789432   1.617028760  -0.573061380
  H   -2.501427567   2.106033197  -0.716748279
  H   -1.751591421   1.438566987  -1.982493316
  C    1.323591608  -2.067932750   0.240286259
  C    1.565676274  -1.528482052   1.678644557
  O    1.187259640  -0.342857932   1.874626334
  O    2.097852858  -2.311255856   2.489653099
  H    1.771728291  -1.391930279  -0.490751247
  H    0.250020107  -2.094178418   0.039079512
  H    1.736347217  -3.068299850   0.116739391
