11
charge=-1 charge_a=0 charge_b=-1 selection_a=1-4 selection_b=5-11 scaling=0.85 benchmark_Eint=-7.634 benchmark_unit=kcal/mol group=NH-Oa
  N   -1.616937694   2.084062706  -1.212227733
  H   -0.951789432   1.617028760  -0.573061380
  H   -2.501427567   2.106033197  -0.716748279
  H   -1.751591421   1.438566987  -1.982493316
  C    0.093638392  -0.940997902  -1.167134177
  C    0.335723058  -0.401547204   0.271224121
  O   -0.042693576   0.784076916   0.467205898
  O    0.867899642  -1.184321008   1.082232663
  H    0.541775075  -0.264995431  -1.898171683
  H   -0.979933109  -0.967243570  -1.368340924
  H    0.506394001  -1.941365002  -1.290681045
