16
charge=-1 charge_a=0 charge_b=-1 selection_a=1-14 selection_b=15-16 scaling=0.8 benchmark_Eint=-11.977 benchmark_unit=kcal/mol group=NH-Na
  H    0.466342799  -1.424283633  -0.002390268
  H    3.455100256   1.645741513  -0.387838316
  H    2.835108230  -0.746688205  -0.120004837
  H   -0.710017546   2.670276253  -0.428171729
  H   -1.828047825  -0.788803583   0.136804892
  H    1.648360143   3.344920173  -0.531676308
  H   -2.292956658   0.871569363  -0.024225076
  C    2.416656213   1.349023314  -0.341852842
  C    2.061716972   0.007470878  -0.194294133
  C    0.737555519  -0.386001799  -0.132799439
  C   -0.298796239   0.566921545  -0.220472623
  C    0.068006005   1.919128202  -0.361933510
  C    1.401111750   2.296144409  -0.421690978
  N   -1.601355650   0.165662679  -0.201486603
  C   -2.265458758  -3.207172702   1.027259004
  N   -2.073326831  -2.126924310   0.625653807
