6
charge=-1 charge_a=0 charge_b=-1 selection_a=1-4 selection_b=5-6 scaling=1.5 benchmark_Eint=-5.328 benchmark_unit=kcal/mol group=NH-Na
  N   -1.142582202   1.718184738  -0.695531665
  H   -0.587124063   0.870839461  -0.504389511
  H   -0.642731891   2.471805508  -0.236024105
  H   -1.998530171   1.599216958  -0.164361672
  C    1.583004034  -2.374888849   1.032783760
  N    1.002041196  -1.516273931   0.492921350
