12
charge=-1 charge_a=0 charge_b=-1 selection_a=1-10 selection_b=11-12 scaling=1.5 benchmark_Eint=-6.859 benchmark_unit=kcal/mol group=NH-Na
  H    1.379189784   1.482762557   2.064563423
  H    1.325489386   1.595960645   0.295043032
  H    2.083092550   0.198566725   1.071491985
  H   -0.029264332  -0.448182949   0.356090926
  H   -2.055797014   0.450073861   1.047767778
  H   -1.212968339   1.640277551   2.049708730
  H   -1.125749722   1.744916327   0.280995983
  C    1.250625445   0.897837199   1.146681720
  N    0.003204204   0.163966263   1.181620217
  C   -1.145699231   1.043454342   1.132948064
  C   -0.080687904  -1.655912325  -3.486532220
  N   -0.084139192  -1.602958033  -2.318803822
