9
charge=-1 charge_a=0 charge_b=-1 selection_a=1-7 selection_b=8-9 scaling=1.25 benchmark_Eint=-8.408 benchmark_unit=kcal/mol group=NH-Na
  N   -1.043610918   0.386555372   1.163729680
  H   -0.740667234  -0.166071488   0.351452759
  H   -0.769963039  -0.162777701   1.970056154
  C   -0.283092987   1.633039383   1.157198301
  H   -0.523496760   2.233947829   2.039455852
  H    0.806542127   1.501732798   1.117668308
  H   -0.563746445   2.216492118   0.279289536
  C    1.536888084  -1.571914634  -2.074866189
  N    0.593640161  -1.243983372  -1.467149901
