6
charge=-1 charge_a=0 charge_b=-1 selection_a=1-4 selection_b=5-6 scaling=1.0 benchmark_Eint=-8.697 benchmark_unit=kcal/mol group=NH-Ca
  N   -0.828252957   1.807914375  -1.205489677
  H   -0.418648109   0.952789009  -0.796174458
  H   -0.371406840   2.575128170  -0.723670851
  H   -1.789697494   1.820208123  -0.881549666
  C    0.347015050  -0.726530209   0.355711057
  N    0.716545948  -1.570224569   1.073493894
