16
charge=-1 charge_a=0 charge_b=-1 selection_a=1-14 selection_b=15-16 scaling=1.05 benchmark_Eint=-18.03 benchmark_unit=kcal/mol group=NH-Ca
  H    0.442095161  -1.422547837  -0.027726652
  H    3.587290880   1.491289555  -0.353135155
  H    2.841475266  -0.863944488  -0.077876694
  H   -0.518753211   2.719528087  -0.528123694
  H   -1.834438084  -0.659446295   0.072390547
  H    1.871965534   3.275566092  -0.569941940
  H   -2.197692449   1.011973640  -0.154579634
  C    2.534505207   1.246782329  -0.335082487
  C    2.109224121  -0.073371129  -0.183594116
  C    0.765616345  -0.399798924  -0.158748227
  C   -0.219745770   0.601173249  -0.287230199
  C    0.218683154   1.931699983  -0.431573759
  C    1.569874253   2.241710700  -0.456024234
  N   -1.541683477   0.265929531  -0.305807725
  C   -2.400008820  -2.456626816   0.872354617
  N   -2.733295022  -3.473799677   1.334235344
