9
charge=-1 charge_a=0 charge_b=-1 selection_a=1-5 selection_b=6-9 scaling=0.85 benchmark_Eint=-1.894 benchmark_unit=kcal/mol group=CH-Oa
  C   -2.114273443   1.600957237  -1.811270243
  H   -1.457472176   1.139980209  -1.074599696
  H   -1.519338971   2.158371818  -2.534114136
  H   -2.810631457   2.280033769  -1.319000042
  H   -2.675957110   0.828005534  -2.334903039
  N    0.374876786  -0.305683874   0.172233859
  O   -0.472446290   0.516851923   0.607831138
  O    0.451769844  -0.527696587  -1.061547776
  O    1.138297643  -0.900137225   0.968801024
