8
charge=-1 charge_a=0 charge_b=-1 selection_a=1-5 selection_b=6-8 scaling=2.0 benchmark_Eint=-0.63 benchmark_unit=kcal/mol group=CH-Oa
  C    0.084222055   2.695247637   0.000000000
  H   -0.092113573   1.617664288   0.000000000
  H    0.653080794   2.973788964   0.887209552
  H   -0.865901658   3.230824893   0.000000000
  H    0.653080794   2.973788964  -0.887209552
  N   -1.060828507  -3.589469616   0.000000000
  O   -2.016259445  -2.771884382   0.000000000
  O    0.093448141  -3.098978672   0.000000000
