8
charge=-1 charge_a=0 charge_b=-1 selection_a=1-4 selection_b=5-8 scaling=1.05 benchmark_Eint=-9.875 benchmark_unit=kcal/mol group=CH-Oa
  C    2.446498286  -0.224421247  -0.209153866
  H    1.368494895  -0.144528884  -0.323115553
  C    3.638847919  -0.314358267  -0.100712471
  H    4.690695339  -0.392944095   0.004245848
  N   -1.375999784   0.119203055   0.041797018
  O   -0.577024633  -0.037626083  -0.928162147
  O   -0.922585978   0.189011961   1.206494056
  O   -2.602025378   0.202062679  -0.174017685
