11
charge=-1 charge_a=0 charge_b=-1 selection_a=1-4 selection_b=5-11 scaling=1.1 benchmark_Eint=-12.179 benchmark_unit=kcal/mol group=CH-Oa
  C    2.404434686  -0.241718552  -0.787254506
  H    1.400441098  -0.263697926  -0.335343938
  C    3.502584637  -0.222335486  -1.276842492
  H    4.468537031  -0.199812289  -1.712989638
  C   -2.548238155  -0.298614562   1.394367652
  C   -1.375593398   0.118695264   0.469732322
  O   -0.305345211  -0.524655182   0.657844897
  O   -1.591233832   1.027577552  -0.353196061
  H   -2.255414316  -0.165271380   2.437758216
  H   -2.762959454  -1.360053609   1.255060991
  H   -3.444223212   0.285646931   1.188781127
