10
charge=-2 charge_a=0 charge_b=-2 selection_a=1-4 selection_b=5-10 scaling=1.1 benchmark_Eint=-21.821 benchmark_unit=kcal/mol group=CH-Oa
  C    3.220818853   0.169374430  -0.230600282
  H    2.079744481   0.096059110  -0.033424881
  C    4.409974132   0.246069241  -0.439014871
  H    5.450434023   0.314702298  -0.633869902
  C   -0.600896292  -0.000483389  -0.217195224
  O    0.442215880  -0.042094494   0.526449051
  O   -0.593047250   0.146823606  -1.458817613
  C   -1.973026930  -0.147674752   0.510934713
  O   -2.517868848   0.919104506   0.900655436
  O   -2.418462928  -1.319325996   0.635716378
