19
charge=-1 charge_a=0 charge_b=-1 selection_a=1-12 selection_b=13-19 scaling=1.05 benchmark_Eint=-11.036 benchmark_unit=kcal/mol group=CH-Oa
  C   -1.167796722  -0.139747203  -0.171837379
  H   -0.792238191   0.878593696  -0.145082829
  C   -0.247801735  -1.166030427   0.031247534
  H    0.785792561  -0.881829016   0.203067427
  C   -0.672899724  -2.490104772   0.006996167
  H    0.040837080  -3.289153767   0.164470157
  C   -2.012871227  -2.796376404  -0.219122813
  H   -2.340184974  -3.828484600  -0.237396607
  C   -2.931232950  -1.771984747  -0.421924110
  H   -3.973685270  -2.006405941  -0.598164012
  C   -2.505638998  -0.445809694  -0.397664077
  H   -3.222213654   0.350528250  -0.555967023
  C    3.238535937   2.984967026   0.319581166
  C    2.096522440   1.935101613   0.272661604
  O    2.440529970   0.736597867   0.405915185
  O    0.945825825   2.396751213   0.082146783
  H    4.132161605   2.578550513   0.792470262
  H    2.909866425   3.884582317   0.841070723
  H    3.489807314   3.272952655  -0.704403475
