8
charge=-1 charge_a=0 charge_b=-1 selection_a=1-6 selection_b=7-8 scaling=2.0 benchmark_Eint=-3.096 benchmark_unit=kcal/mol group=CH-Oa
  H    0.002027204  -0.021501461   0.397373489
  H    0.093119714   1.859969407   0.187761670
  H    0.091226432   1.684002001  -2.252452858
  H    0.006302505  -0.150743010  -2.115377480
  C    0.048938457   0.876570562  -0.279744921
  C    0.049426579   0.808806882  -1.608707632
  O   -0.146857920  -2.653212479   2.760616313
  H   -0.289049766  -3.530257338   2.390002687
