8
charge=-1 charge_a=0 charge_b=-1 selection_a=1-5 selection_b=6-8 scaling=0.9 benchmark_Eint=-2.37 benchmark_unit=kcal/mol group=CH-Oa
  C    0.084222055   2.695247637   0.000000000
  H   -0.092113573   1.617664288   0.000000000
  H    0.653080794   2.973788964   0.887209552
  H   -0.865901658   3.230824893   0.000000000
  H    0.653080794   2.973788964  -0.887209552
  N   -0.002548277  -1.175217848   0.000000000
  O   -0.957979215  -0.357632614   0.000000000
  O    1.151728371  -0.684726904   0.000000000
