12
charge=-2 charge_a=0 charge_b=-2 selection_a=1-6 selection_b=7-12 scaling=1.05 benchmark_Eint=-11.677 benchmark_unit=kcal/mol group=CH-Oa
  H    0.073086240   2.688425198  -0.230134685
  H    0.051300070   4.354310532  -1.128605344
  H   -0.180202278   3.097572590  -3.258056406
  H   -0.145621160   1.503221082  -2.238593849
  C    0.011215063   3.266229711  -1.155668272
  C   -0.112636863   2.594089320  -2.294627511
  C    0.006304071  -0.355863160   0.209408405
  O    0.105821360   0.711622033   0.881501364
  O   -0.110209143  -0.428501604  -1.048454299
  C    0.029337469  -1.703087002   1.002797305
  O   -1.084393120  -2.149034454   1.392369175
  O    1.159748793  -2.231533085   1.187080537
