12
charge=-1 charge_a=0 charge_b=-1 selection_a=1-5 selection_b=6-12 scaling=1.25 benchmark_Eint=-2.692 benchmark_unit=kcal/mol group=CH-Oa
  C   -0.026305199  -3.241003982  -0.002659873
  H   -0.262138563  -2.174306966  -0.000193835
  H    0.558468491  -3.488132147   0.883298315
  H    0.557816771  -3.484009884  -0.890173006
  H   -0.943672309  -3.831562965  -0.003704809
  C   -0.484660338   2.822311022   0.000539301
  C   -0.130591606   1.305964876   0.001636492
  O   -1.119987016   0.532950536   0.003747706
  O    1.085566060   1.014858556   0.000167447
  H   -1.090849836   3.053838790  -0.878115644
  H    0.410407554   3.444178858   0.000065532
  H   -1.091117456   3.055297576   0.878610439
