12
charge=-1 charge_a=0 charge_b=-1 selection_a=1-5 selection_b=6-12 scaling=0.9 benchmark_Eint=-3.015 benchmark_unit=kcal/mol group=CH-Oa
  C   -0.026305199  -3.241003982  -0.002659873
  H   -0.262138563  -2.174306966  -0.000193835
  H    0.558468491  -3.488132147   0.883298315
  H    0.557816771  -3.484009884  -0.890173006
  H   -0.943672309  -3.831562965  -0.003704809
  C   -0.244462772   2.064278921  -0.000564330
  C    0.109605961   0.547932776   0.000532861
  O   -0.879789449  -0.225081564   0.002644075
  O    1.325763626   0.256826456  -0.000936184
  H   -0.850652269   2.295806689  -0.879219275
  H    0.650605120   2.686146758  -0.001038099
  H   -0.850919889   2.297265476   0.877506808
