10
charge=-2 charge_a=0 charge_b=-2 selection_a=1-4 selection_b=5-10 scaling=0.85 benchmark_Eint=-18.785 benchmark_unit=kcal/mol group=CH-Oa
  C    3.220818853   0.169374430  -0.230600282
  H    2.079744481   0.096059110  -0.033424881
  C    4.409974132   0.246069241  -0.439014871
  H    5.450434023   0.314702298  -0.633869902
  C   -0.228730700   0.030915158  -0.344439299
  O    0.814381471  -0.010695947   0.399204976
  O   -0.220881659   0.178222152  -1.586061688
  C   -1.600861339  -0.116276205   0.383690638
  O   -2.145703257   0.950503053   0.773411361
  O   -2.046297337  -1.287927450   0.508472303
