8
charge=-1 charge_a=0 charge_b=-1 selection_a=1-4 selection_b=5-8 scaling=0.85 benchmark_Eint=-7.715 benchmark_unit=kcal/mol group=CH-Oa
  C    2.446498286  -0.224421247  -0.209153866
  H    1.368494895  -0.144528884  -0.323115553
  C    3.638847919  -0.314358267  -0.100712471
  H    4.690695339  -0.392944095   0.004245848
  N   -1.005424636   0.098840616   0.157043989
  O   -0.206449485  -0.057988522  -0.812915176
  O   -0.552010830   0.168649522   1.321741027
  O   -2.231450230   0.181700240  -0.058770714
