9
charge=-1 charge_a=0 charge_b=-1 selection_a=1-6 selection_b=7-9 scaling=1.1 benchmark_Eint=-5.269 benchmark_unit=kcal/mol group=CH-Oa
  H    0.047341790   0.809082792  -0.752652171
  H   -0.372177546   2.565575244  -0.350222577
  H    0.094597218   3.251834116  -2.661773242
  H    0.517400839   1.510107730  -3.087350256
  C   -0.052394521   1.840482452  -1.090013179
  C    0.197109173   2.222306924  -2.336241858
  N   -0.130726091  -0.998555576   1.217139332
  O    0.227145862  -1.360811940   0.063018197
  O   -0.192361438  -1.892947176   2.086880282
