11
charge=-1 charge_a=0 charge_b=-1 selection_a=1-4 selection_b=5-11 scaling=0.95 benchmark_Eint=-12.244 benchmark_unit=kcal/mol group=CH-Oa
  C    2.404434686  -0.241718552  -0.787254506
  H    1.400441098  -0.263697926  -0.335343938
  C    3.502584637  -0.222335486  -1.276842492
  H    4.468537031  -0.199812289  -1.712989638
  C   -2.315630931  -0.263029482   1.258932811
  C   -1.142986174   0.154280344   0.334297481
  O   -0.072737987  -0.489070102   0.522410056
  O   -1.358626608   1.063162632  -0.488630902
  H   -2.022807092  -0.129686300   2.302323375
  H   -2.530352230  -1.324468529   1.119626150
  H   -3.211615988   0.321232011   1.053346286
