14
charge=-1 charge_a=0 charge_b=-1 selection_a=1-12 selection_b=13-14 scaling=1.5 benchmark_Eint=-9.329 benchmark_unit=kcal/mol group=CH-Oa
  C    0.361595526   0.532462027   0.069495312
  H    1.000431186   1.464697154   0.137290173
  C    0.933221391  -0.738618362   0.120739864
  H    2.006617424  -0.821825846   0.242570400
  C    0.156477516  -1.889429733   0.016452166
  H    0.620777986  -2.868023200   0.059623129
  C   -1.222485594  -1.786067767  -0.143549872
  H   -1.831715208  -2.677671766  -0.224815362
  C   -1.810782652  -0.525609778  -0.198175457
  H   -2.884061294  -0.438257845  -0.322749838
  C   -1.021072421   0.616211604  -0.092478921
  H   -1.481144142   1.596117550  -0.137959674
  O    2.458356162   3.589513118   0.272008424
  H    2.745974120   3.865255163  -0.604326842
