7
charge=-1 charge_a=0 charge_b=-1 selection_a=1-5 selection_b=6-7 scaling=1.5 benchmark_Eint=-3.445 benchmark_unit=kcal/mol group=CH-Oa
  C   -0.922576823   0.953412081  -0.844672562
  H   -0.257200971   0.266960049  -0.262926867
  H   -0.328555728   1.652074726  -1.439693454
  H   -1.554584066   1.529699132  -0.163218657
  H   -1.568962302   0.384024225  -1.517746840
  O    1.454734275  -1.497606369   1.244326888
  H    1.233775280  -1.339944578   2.168741478
