9
charge=-1 charge_a=0 charge_b=-1 selection_a=1-5 selection_b=6-9 scaling=1.0 benchmark_Eint=-2.919 benchmark_unit=kcal/mol group=CH-Oa
  C   -2.114273443   1.600957237  -1.811270243
  H   -1.457472176   1.139980209  -1.074599696
  H   -1.519338971   2.158371818  -2.534114136
  H   -2.810631457   2.280033769  -1.319000042
  H   -2.675957110   0.828005534  -2.334903039
  N    0.548704883  -0.415647689   0.469133418
  O   -0.298618193   0.406888108   0.904730697
  O    0.625597941  -0.637660402  -0.764648217
  O    1.312125740  -1.010101040   1.265700583
