8
charge=-1 charge_a=0 charge_b=-1 selection_a=1-5 selection_b=6-8 scaling=0.85 benchmark_Eint=-1.602 benchmark_unit=kcal/mol group=CH-Oa
  C    0.084222055   2.695247637   0.000000000
  H   -0.092113573   1.617664288   0.000000000
  H    0.653080794   2.973788964   0.887209552
  H   -0.865901658   3.230824893   0.000000000
  H    0.653080794   2.973788964  -0.887209552
  N    0.045555369  -1.065479131   0.000000000
  O   -0.909875569  -0.247893897   0.000000000
  O    1.199832017  -0.574988187   0.000000000
