13
charge=-1 charge_a=0 charge_b=-1 selection_a=1-6 selection_b=7-13 scaling=0.95 benchmark_Eint=-7.174 benchmark_unit=kcal/mol group=CH-Oa
  H   -0.616913525   1.960557820  -0.354568490
  H   -0.991047728   3.263628929  -1.646266499
  H   -0.367718513   1.625863212  -3.390821524
  H   -0.016705554   0.383351094  -2.034194078
  C   -0.667906519   2.257008926  -1.398052674
  C   -0.333411387   1.378075539  -2.334044992
  C    0.455374784  -1.781161135   1.808495699
  C    0.201525364  -0.696484348   0.723855107
  O   -0.180457611   0.422298103   1.140151187
  O    0.387841888  -1.067777125  -0.459198492
  H    0.549149957  -1.338935181   2.800211631
  H    1.348756694  -2.358803633   1.566906984
  H   -0.389564797  -2.474605710   1.814875991
