26
charge=-1 charge_a=0 charge_b=-1 selection_a=1-12 selection_b=13-26 scaling=1.25 benchmark_Eint=-7.823 benchmark_unit=kcal/mol group=CH-Oa
  C   -2.445498456  -0.715302257  -1.484848942
  H   -1.893923835   0.173736596  -1.199140892
  C   -1.934845889  -1.947798743  -1.084760264
  H   -1.014954905  -1.947732398  -0.510378638
  C   -2.605135118  -3.117626004  -1.426163947
  H   -2.209391386  -4.076454857  -1.115851962
  C   -3.783956809  -3.063744173  -2.165790724
  H   -4.303179154  -3.976443921  -2.429834967
  C   -4.293822715  -1.833227695  -2.565269955
  H   -5.210065321  -1.787755676  -3.140392958
  C   -3.622751462  -0.661728990  -2.223460688
  H   -4.020986438   0.295589698  -2.535234820
  O    1.097642979  -0.582641492   0.720559235
  C    1.097565205   0.666657748   0.638412718
  O    0.269758702   1.413503041   0.068752465
  C    2.274572413   1.381229132   1.331696476
  C    2.378307336   2.770603496   1.305959984
  C    3.438262414   3.418374279   1.930078477
  C    4.414868832   2.680638180   2.592501031
  C    4.320212217   1.292518389   2.623856625
  C    3.257440337   0.651545918   1.997514410
  H    1.606060480   3.317796289   0.784523530
  H    3.505768909   4.499064143   1.901768031
  H    5.241467281   3.182479999   3.079433831
  H    5.076830119   0.712166166   3.137636537
  H    3.158611978  -0.424486646   2.005819946
