12
charge=-2 charge_a=0 charge_b=-2 selection_a=1-6 selection_b=7-12 scaling=2.0 benchmark_Eint=-3.021 benchmark_unit=kcal/mol group=CH-Oa
  H    0.073086240   2.688425198  -0.230134685
  H    0.051300070   4.354310532  -1.128605344
  H   -0.180202278   3.097572590  -3.258056406
  H   -0.145621160   1.503221082  -2.238593849
  C    0.011215063   3.266229711  -1.155668272
  C   -0.112636863   2.594089320  -2.294627511
  C    0.037131976  -2.123973546   1.250668843
  O    0.136649265  -1.056488353   1.922761802
  O   -0.079381238  -2.196611990  -0.007193861
  C    0.060165374  -3.471197388   2.044057743
  O   -1.053565215  -3.917144840   2.433629613
  O    1.190576698  -3.999643471   2.228340975
