11
charge=-1 charge_a=0 charge_b=-1 selection_a=1-4 selection_b=5-11 scaling=2.0 benchmark_Eint=-4.12 benchmark_unit=kcal/mol group=CH-Oa
  C    2.404434686  -0.241718552  -0.787254506
  H    1.400441098  -0.263697926  -0.335343938
  C    3.502584637  -0.222335486  -1.276842492
  H    4.468537031  -0.199812289  -1.712989638
  C   -3.943881498  -0.512125044   2.206976699
  C   -2.771236741  -0.094815218   1.282341369
  O   -1.700988554  -0.738165664   1.470453944
  O   -2.986877175   0.814067070   0.459412986
  H   -3.651057659  -0.378781862   3.250367263
  H   -4.158602797  -1.573564091   2.067670038
  H   -4.839866555   0.072136449   2.001390174
