12
charge=-1 charge_a=0 charge_b=-1 selection_a=1-5 selection_b=6-12 scaling=1.1 benchmark_Eint=-3.329 benchmark_unit=kcal/mol group=CH-Oa
  C   -0.026305199  -3.241003982  -0.002659873
  H   -0.262138563  -2.174306966  -0.000193835
  H    0.558468491  -3.488132147   0.883298315
  H    0.557816771  -3.484009884  -0.890173006
  H   -0.943672309  -3.831562965  -0.003704809
  C   -0.381718524   2.497440121   0.000066316
  C   -0.027649791   0.981093976   0.001163507
  O   -1.017045201   0.208079636   0.003274721
  O    1.188507874   0.689987656  -0.000305538
  H   -0.987908021   2.728967889  -0.878588629
  H    0.513349368   3.119307958  -0.000407453
  H   -0.988175641   2.730426676   0.878137454
