12
charge=-1 charge_a=0 charge_b=-1 selection_a=1-5 selection_b=6-12 scaling=0.8 benchmark_Eint=-0.872 benchmark_unit=kcal/mol group=CH-Oa
  C   -0.026305199  -3.241003982  -0.002659873
  H   -0.262138563  -2.174306966  -0.000193835
  H    0.558468491  -3.488132147   0.883298315
  H    0.557816771  -3.484009884  -0.890173006
  H   -0.943672309  -3.831562965  -0.003704809
  C   -0.175834896   1.847698321  -0.000879654
  C    0.178233837   0.331352176   0.000217537
  O   -0.811161573  -0.441662164   0.002328751
  O    1.394391502   0.040245856  -0.001251508
  H   -0.782024393   2.079226089  -0.879534599
  H    0.719232996   2.469566158  -0.001353423
  H   -0.782292013   2.080684876   0.877191484
