19
charge=-1 charge_a=0 charge_b=-1 selection_a=1-12 selection_b=13-19 scaling=1.0 benchmark_Eint=-11.225 benchmark_unit=kcal/mol group=CH-Oa
  C   -1.167796722  -0.139747203  -0.171837379
  H   -0.792238191   0.878593696  -0.145082829
  C   -0.247801735  -1.166030427   0.031247534
  H    0.785792561  -0.881829016   0.203067427
  C   -0.672899724  -2.490104772   0.006996167
  H    0.040837080  -3.289153767   0.164470157
  C   -2.012871227  -2.796376404  -0.219122813
  H   -2.340184974  -3.828484600  -0.237396607
  C   -2.931232950  -1.771984747  -0.421924110
  H   -3.973685270  -2.006405941  -0.598164012
  C   -2.505638998  -0.445809694  -0.397664077
  H   -3.222213654   0.350528250  -0.555967023
  C    3.157800247   2.910328320   0.309346970
  C    2.015786750   1.860462907   0.262427408
  O    2.359794280   0.661959161   0.395680989
  O    0.865090135   2.322112507   0.071912587
  H    4.051425915   2.503911807   0.782236066
  H    2.829130735   3.809943611   0.830836527
  H    3.409071624   3.198313949  -0.714637671
