10
charge=-2 charge_a=0 charge_b=-2 selection_a=1-4 selection_b=5-10 scaling=1.25 benchmark_Eint=-19.588 benchmark_unit=kcal/mol group=CH-Oa
  C    3.220818853   0.169374430  -0.230600282
  H    2.079744481   0.096059110  -0.033424881
  C    4.409974132   0.246069241  -0.439014871
  H    5.450434023   0.314702298  -0.633869902
  C   -0.824195646  -0.019322516  -0.140848778
  O    0.218916525  -0.060933621   0.602795496
  O   -0.816346605   0.127984478  -1.382471168
  C   -2.196326285  -0.166513879   0.587281158
  O   -2.741168203   0.900265379   0.977001882
  O   -2.641762283  -1.338165124   0.712062824
