12
charge=-1 charge_a=0 charge_b=-1 selection_a=1-5 selection_b=6-12 scaling=2.0 benchmark_Eint=-0.686 benchmark_unit=kcal/mol group=CH-Oa
  C   -0.026305199  -3.241003982  -0.002659873
  H   -0.262138563  -2.174306966  -0.000193835
  H    0.558468491  -3.488132147   0.883298315
  H    0.557816771  -3.484009884  -0.890173006
  H   -0.943672309  -3.831562965  -0.003704809
  C   -0.999369410   4.446665523   0.002904226
  C   -0.645300677   2.930319378   0.004001417
  O   -1.634696087   2.157305038   0.006112631
  O    0.570856988   2.639213058   0.002532372
  H   -1.605558907   4.678193291  -0.875750719
  H   -0.104301518   5.068533360   0.002430457
  H   -1.605826527   4.679652078   0.880975364
