11
charge=-1 charge_a=0 charge_b=-1 selection_a=1-4 selection_b=5-11 scaling=1.25 benchmark_Eint=-10.602 benchmark_unit=kcal/mol group=CH-Oa
  C    2.404434686  -0.241718552  -0.787254506
  H    1.400441098  -0.263697926  -0.335343938
  C    3.502584637  -0.222335486  -1.276842492
  H    4.468537031  -0.199812289  -1.712989638
  C   -2.780845378  -0.334199642   1.529802493
  C   -1.608200622   0.083110184   0.605167163
  O   -0.537952434  -0.560240262   0.793279738
  O   -1.823841056   0.991992472  -0.217761220
  H   -2.488021540  -0.200856460   2.573193057
  H   -2.995566678  -1.395638689   1.390495832
  H   -3.676830436   0.250061851   1.324215968
