8
charge=-1 charge_a=0 charge_b=-1 selection_a=1-4 selection_b=5-8 scaling=0.8 benchmark_Eint=-5.442 benchmark_unit=kcal/mol group=CH-Oa
  C    2.446498286  -0.224421247  -0.209153866
  H    1.368494895  -0.144528884  -0.323115553
  C    3.638847919  -0.314358267  -0.100712471
  H    4.690695339  -0.392944095   0.004245848
  N   -0.912780849   0.093750007   0.185855731
  O   -0.113805698  -0.063079131  -0.784103434
  O   -0.459367043   0.163558913   1.350552769
  O   -2.138806443   0.176609631  -0.029958972
