8
charge=-1 charge_a=0 charge_b=-1 selection_a=1-4 selection_b=5-8 scaling=2.0 benchmark_Eint=-3.21 benchmark_unit=kcal/mol group=CH-Oa
  C    2.446498286  -0.224421247  -0.209153866
  H    1.368494895  -0.144528884  -0.323115553
  C    3.638847919  -0.314358267  -0.100712471
  H    4.690695339  -0.392944095   0.004245848
  N   -3.136231738   0.215924636  -0.505626090
  O   -2.337256587   0.059095498  -1.475585255
  O   -2.682817932   0.285733542   0.659070948
  O   -4.362257332   0.298784260  -0.721440793
