14
charge=-1 charge_a=0 charge_b=-1 selection_a=1-12 selection_b=13-14 scaling=0.95 benchmark_Eint=-8.424 benchmark_unit=kcal/mol group=CH-Na
  C   -0.291881884   0.525557923   0.252328292
  H    0.195749289   1.486595981   0.366998015
  C    0.450497220  -0.512251771  -0.302256626
  H    1.474003552  -0.304001890  -0.588968334
  C   -0.126254600  -1.765725451  -0.471943031
  H    0.452039460  -2.572717898  -0.903532534
  C   -1.446563368  -1.988802581  -0.088807878
  H   -1.894137536  -2.965599805  -0.221676363
  C   -2.189588206  -0.952607589   0.465528246
  H   -3.216223942  -1.122467174   0.764494691
  C   -1.609909953   0.302484021   0.634693286
  H   -2.189809717   1.108239510   1.066472695
  C    2.899152183   1.725212729  -0.481159824
  N    2.163812439   2.500203397  -0.005587961
