6
charge=-1 charge_a=0 charge_b=-1 selection_a=1-4 selection_b=5-6 scaling=1.25 benchmark_Eint=-9.519 benchmark_unit=kcal/mol group=CH-Na
  C   -0.000003057   0.000012044   1.483199061
  H   -0.000003057   0.000012044   0.386191553
  C    0.000009850  -0.000089019   2.685232289
  H    0.000025762  -0.000194541   3.745343555
  C   -0.000014648   0.000124126  -3.195866552
  N    0.000009914  -0.000050500  -2.027055756
