6
charge=-1 charge_a=0 charge_b=-1 selection_a=1-4 selection_b=5-6 scaling=0.95 benchmark_Eint=-10.887 benchmark_unit=kcal/mol group=CH-Na
  C   -0.000003057   0.000012044   1.483199061
  H   -0.000003057   0.000012044   0.386191553
  C    0.000009850  -0.000089019   2.685232289
  H    0.000025762  -0.000194541   3.745343555
  C   -0.000017761   0.000139137  -2.616687198
  N    0.000006801  -0.000035489  -1.447876402
