7
charge=-1 charge_a=0 charge_b=-1 selection_a=1-5 selection_b=6-7 scaling=0.95 benchmark_Eint=-2.402 benchmark_unit=kcal/mol group=CH-Ca
  C   -1.319058717   1.445986259  -1.779501340
  H   -0.774039998   0.850829593  -1.042771288
  H   -0.616043508   2.003778256  -2.398497574
  H   -1.981623665   2.147627014  -1.272324581
  H   -1.913877877   0.791735033  -2.417190808
  C    0.435362870  -0.476248190   0.589972900
  N    1.019499509  -1.118322223   1.373011273
