7
charge=-1 charge_a=0 charge_b=-1 selection_a=1-5 selection_b=6-7 scaling=0.8 benchmark_Eint=0.412 benchmark_unit=kcal/mol group=CH-Ca
  C   -1.319058717   1.445986259  -1.779501340
  H   -0.774039998   0.850829593  -1.042771288
  H   -0.616043508   2.003778256  -2.398497574
  H   -1.981623665   2.147627014  -1.272324581
  H   -1.913877877   0.791735033  -2.417190808
  C    0.244404523  -0.266709593   0.332171186
  N    0.828541162  -0.908783626   1.115209559
