4
charge=0 charge_a=0 charge_b=0 selection_a=1-2 selection_b=3-4 scaling=1.15 benchmark_Eint=2.026 benchmark_unit=kcal/mol group=HCNO contact=H-H
  F    0.655496934  -0.274524357   1.568710612
  H    0.304496934  -0.127524357   0.728710612
  F   -1.199632955   0.502410383  -2.870916476
  H   -0.848632955   0.355410383  -2.030916476
