8
charge=0 charge_a=0 charge_b=0 selection_a=1-4 selection_b=5-8 scaling=1.25 benchmark_Eint=0.097 benchmark_unit=kcal/mol group=HCNO contact=H-H
  C    0.052610641  -1.106577151  -1.495895895
  C    0.085610641  -1.817577151  -2.456895895
  H    0.022610641  -0.475577151  -0.642895895
  H    0.114610641  -2.448577151  -3.309895895
  B   -0.065009891   1.367374726   1.848447926
  H   -0.031451402   0.661527817   0.894268190
  H    0.710228561   2.261592792   1.953010798
  H   -0.872533736   1.179435388   2.698503833
