6
charge=0 charge_a=0 charge_b=0 selection_a=1-2 selection_b=3-6 scaling=1.10 benchmark_Eint=1.824 benchmark_unit=kcal/mol group=HCNO contact=H-H
  F    0.655496934  -0.274524357   1.568710612
  H    0.304496934  -0.127524357   0.728710612
  B   -0.656126985   0.274788224  -1.570218426
  H   -0.204195644   0.085517834  -0.488673336
  H   -1.769945930   0.671373655  -1.687185746
  H    0.004386241   0.067158699  -2.534906593
