9
charge=0 charge_a=0 charge_b=0 selection_a=1-5 selection_b=6-9 scaling=1.05 benchmark_Eint=2.119 benchmark_unit=kcal/mol group=HCNO contact=H-H
  C   -1.485547661  -1.164488879   0.027767246
  H   -0.629547661  -0.493488879   0.011767246
  H   -1.452547661  -1.772488879   0.929767246
  H   -2.403547661  -0.582488879   0.016767246
  H   -1.455547661  -1.811488879  -0.846232754
  C    1.487249002   1.165822524  -0.027799047
  C    2.427881393   1.904076826  -0.045751508
  H    0.651959558   0.511057083  -0.012186160
  H    3.262567171   2.559558186  -0.061715172
