6
charge=0 charge_a=0 charge_b=0 selection_a=1-2 selection_b=3-6 scaling=1.15 benchmark_Eint=2.127 benchmark_unit=kcal/mol group=HCNO contact=H-H
  F    0.655496934  -0.274524357   1.568710612
  H    0.304496934  -0.127524357   0.728710612
  C   -0.929083757   0.389103454  -2.223448309
  C   -1.384972289   0.579449778  -3.312514387
  H   -0.525074513   0.219903001  -1.256588579
  H   -1.789878403   0.748394823  -4.279013021
