6
charge=0 charge_a=0 charge_b=0 selection_a=1-2 selection_b=3-6 scaling=1.25 benchmark_Eint=1.727 benchmark_unit=kcal/mol group=HCNO contact=H-H
  F    0.655496934  -0.274524357   1.568710612
  H    0.304496934  -0.127524357   0.728710612
  C   -1.001249530   0.419326726  -2.396152724
  C   -1.457138062   0.609673051  -3.485218802
  H   -0.597240286   0.250126274  -1.429292994
  H   -1.862044176   0.778618096  -4.451717436
