4
charge=0 charge_a=0 charge_b=0 selection_a=1-2 selection_b=3-4 scaling=1.05 benchmark_Eint=2.761 benchmark_unit=kcal/mol group=HCNO contact=H-H
  F    0.655496934  -0.274524357   1.568710612
  H    0.304496934  -0.127524357   0.728710612
  H   -0.266982912   0.111813356  -0.638933464
  H   -0.549240904   0.230023968  -1.314422677
