9
charge=0 charge_a=0 charge_b=0 selection_a=1-5 selection_b=6-9 scaling=1.25 benchmark_Eint=0.459 benchmark_unit=kcal/mol group=HCNO contact=H-H
  C   -1.485547661  -1.164488879   0.027767246
  H   -0.629547661  -0.493488879   0.011767246
  H   -1.452547661  -1.772488879   0.929767246
  H   -2.403547661  -0.582488879   0.016767246
  H   -1.455547661  -1.811488879  -0.846232754
  C    1.731387585   1.357197511  -0.032362385
  C    2.672019976   2.095451813  -0.050314846
  H    0.896098141   0.702432070  -0.016749498
  H    3.506705753   2.750933174  -0.066278510
