4
charge=0 charge_a=0 charge_b=0 selection_a=1-2 selection_b=3-4 scaling=1.15 benchmark_Eint=1.706 benchmark_unit=kcal/mol group=HCNO contact=H-H
  F    0.655496934  -0.274524357   1.568710612
  H    0.304496934  -0.127524357   0.728710612
  H   -0.321426963   0.134614711  -0.769226922
  H   -0.603684956   0.252825323  -1.444716135
