9
charge=0 charge_a=0 charge_b=0 selection_a=1-5 selection_b=6-9 scaling=1.25 benchmark_Eint=0.248 benchmark_unit=kcal/mol group=HCNO contact=H-H
  C   -1.485547661  -1.164488879   0.027767246
  H   -0.629547661  -0.493488879   0.011767246
  H   -1.452547661  -1.772488879   0.929767246
  H   -2.403547661  -0.582488879   0.016767246
  H   -1.455547661  -1.811488879  -0.846232754
  B    1.917847775   1.503359647  -0.035847622
  H    0.983479356   0.770928327  -0.018382792
  H    1.765163528   2.665263467   0.159654379
  H    3.004619270   1.075162691  -0.249356605
