6
charge=0 charge_a=0 charge_b=0 selection_a=1-2 selection_b=3-6 scaling=1.00 benchmark_Eint=4.329 benchmark_unit=kcal/mol group=HCNO contact=H-H
  F    0.655496934  -0.274524357   1.568710612
  H    0.304496934  -0.127524357   0.728710612
  B   -0.609904351   0.255430027  -1.459600155
  H   -0.157973009   0.066159636  -0.378055065
  H   -1.723723296   0.652015458  -1.576567475
  H    0.050608876   0.047800502  -2.424288322
