8
charge=0 charge_a=0 charge_b=0 selection_a=1-4 selection_b=5-8 scaling=1.00 benchmark_Eint=2.574 benchmark_unit=kcal/mol group=HCNO contact=H-H
  B    1.692179578   0.552343483   0.883749572
  H    0.681179578   0.222343483   0.355749572
  H    2.735179578   0.176343483   0.456749572
  H    1.661179578   1.257343483   1.838749572
  B   -1.813702015  -0.592009560  -0.947215295
  H   -0.802702015  -0.262009560  -0.419215296
  H   -2.442171521   0.198520681  -1.573028380
  H   -2.197232508  -1.711539802  -0.849402210
