10
charge=0 charge_a=0 charge_b=0 selection_a=1-4 selection_b=5-10 scaling=1.00 benchmark_Eint=2.547 benchmark_unit=kcal/mol group=HCNO contact=C-H
  C    0.052610641  -1.106577151  -1.495895895
  C    0.085610641  -1.817577151  -2.456895895
  H    0.022610641  -0.475577151  -0.642895895
  H    0.114610641  -2.448577151  -3.309895895
  C   -0.034657873   0.728970602   0.985438865
  C    1.286644160   0.821863206   0.963192473
  H   -0.663641905   1.426037998   0.447667413
  H   -0.540580404  -0.047602612   1.543579919
  H    1.792566690   1.598436420   0.405051418
  H    1.915529495   0.125789745   1.500915424
