7
charge=0 charge_a=0 charge_b=0 selection_a=1-5 selection_b=6-7 scaling=1.05 benchmark_Eint=0.746 benchmark_unit=kcal/mol group=HCNO contact=C-H
  C   -1.700000000   0.000000000   0.000000000
  H   -2.787765140   0.000000000  -0.000000000
  H   -1.337649723   1.026186765   0.000000000
  H   -1.336769018  -0.512274047   0.887247178
  H   -1.337354622  -0.511979565  -0.888678938
  F    1.081197341  -0.000365932   0.000271021
  H    0.159020651  -0.000053821   0.000039861
