8
charge=0 charge_a=0 charge_b=0 selection_a=1-4 selection_b=5-8 scaling=1.00 benchmark_Eint=2.280 benchmark_unit=kcal/mol group=HCNO contact=C-H
  C    0.000000000   0.000000000  -1.700000000
  C   -1.195880847   0.000000000  -1.700000000
  H    1.061446885   0.000714097  -1.700000000
  H   -2.257300137   0.000279700  -1.700107731
  B    0.000000001  -0.000000000   1.850102096
  H   -0.000000000   0.000000000   0.662750000
  H    0.834544407   0.602165994   2.443807200
  H   -0.833251715  -0.602166531   2.444322633
