9
charge=0 charge_a=0 charge_b=0 selection_a=1-5 selection_b=6-9 scaling=1.05 benchmark_Eint=1.268 benchmark_unit=kcal/mol group=HCNO contact=C-H
  C   -1.485547661  -1.164488879   0.027767246
  H   -0.629547661  -0.493488879   0.011767246
  H   -1.452547661  -1.772488879   0.929767246
  H   -2.403547661  -0.582488879   0.016767246
  H   -1.455547661  -1.811488879  -0.846232754
  C    1.197320958   0.938554162  -0.022379831
  C    0.519785763   1.791107033  -0.516576818
  H    1.798517045   0.182078497   0.416912592
  H   -0.081552827   2.547960945  -0.954954571
