9
charge=0 charge_a=0 charge_b=0 selection_a=1-5 selection_b=6-9 scaling=1.10 benchmark_Eint=0.573 benchmark_unit=kcal/mol group=HCNO contact=C-H
  C   -1.485547661  -1.164488879   0.027767246
  H   -0.629547661  -0.493488879   0.011767246
  H   -1.452547661  -1.772488879   0.929767246
  H   -2.403547661  -0.582488879   0.016767246
  H   -1.455547661  -1.811488879  -0.846232754
  C    1.284277229   1.006717314  -0.024005182
  C    0.606742033   1.859270184  -0.518202168
  H    1.885473316   0.250241649   0.415287242
  H    0.005403443   2.616124097  -0.956579922
