8
charge=0 charge_a=0 charge_b=0 selection_a=1-2 selection_b=3-8 scaling=1.15 benchmark_Eint=-2.055 benchmark_unit=kcal/mol group=HCNO contact=C-H
  F    0.655496934  -0.274524357   1.568710612
  H    0.304496934  -0.127524357   0.728710612
  C   -0.408121047   0.170922490  -0.976699942
  C   -1.592803130  -0.245309790  -0.554512720
  H   -0.115464721   1.210879087  -0.916996073
  H    0.316457007  -0.511821314  -1.400247512
  H   -2.317381184   0.437434014  -0.130965150
  H   -1.885841358  -1.284390920  -0.614512746
