11
charge=0 charge_a=0 charge_b=0 selection_a=1-5 selection_b=6-11 scaling=1.05 benchmark_Eint=1.341 benchmark_unit=kcal/mol group=HCNO contact=C-H
  C   -1.485547661  -1.164488879   0.027767246
  H   -0.629547661  -0.493488879   0.011767246
  H   -1.452547661  -1.772488879   0.929767246
  H   -2.403547661  -0.582488879   0.016767246
  H   -1.455547661  -1.811488879  -0.846232754
  C    1.201058898   0.941484253  -0.022449699
  C    0.450445055   1.886000193  -0.569653042
  H    1.298928840   0.842216046   1.050531800
  H    1.748972808   0.230032141  -0.625915722
  H   -0.097468855   2.597452304   0.033812981
  H    0.352824264   1.985867889  -1.641873926
