10
charge=0 charge_a=0 charge_b=0 selection_a=1-5 selection_b=6-10 scaling=1.05 benchmark_Eint=1.069 benchmark_unit=kcal/mol group=HCNO contact=C-H
  C   -1.485547661  -1.164488879   0.027767246
  H   -0.629547661  -0.493488879   0.011767246
  H   -1.452547661  -1.772488879   0.929767246
  H   -2.403547661  -0.582488879   0.016767246
  H   -1.455547661  -1.811488879  -0.846232754
  C    1.194318088   0.937028845  -0.022626897
  H    2.050058407   1.608355455  -0.038816045
  H    1.227677888   0.329134311   0.879430950
  H    0.276093393   1.518675579  -0.033557834
  H    1.224443571   0.289950520  -0.896564593
