6
charge=0 charge_a=0 charge_b=0 selection_a=1-4 selection_b=5-6 scaling=1.10 benchmark_Eint=0.692 benchmark_unit=kcal/mol group=HCNO contact=C-H
  C    0.000000000   0.000000000  -1.700000000
  C   -1.195880847   0.000000000  -1.700000000
  H    1.061446885   0.000714097  -1.700000000
  H   -2.257300137   0.000279700  -1.700107731
  H    0.000000000   0.000000000   0.761250000
  H    0.000000000  -0.000000000   1.502821979
