17
charge=0 charge_a=0 charge_b=0 selection_a=1-5 selection_b=6-17 scaling=1.05 benchmark_Eint=1.204 benchmark_unit=kcal/mol group=HCNO contact=C-H
  C   -1.485547661  -1.164488879   0.027767246
  H   -0.629547661  -0.493488879   0.011767246
  H   -1.452547661  -1.772488879   0.929767246
  H   -2.403547661  -0.582488879   0.016767246
  H   -1.455547661  -1.811488879  -0.846232754
  C    1.131611921   0.887046261  -0.021151625
  C    1.031383321   0.981883945  -1.406126368
  C    0.243092414   1.973840441  -1.979514332
  C   -0.444947515   2.870136042  -1.169077259
  C   -0.344565713   2.775877141   0.214616260
  C    0.444240051   1.783952965   0.788860891
  H    1.745049634   0.115579647   0.424880255
  H    1.566536827   0.283766953  -2.035268156
  H    0.164830586   2.046366852  -3.055837706
  H   -1.058385228   3.641602655  -1.615109139
  H   -0.879872421   3.473415350   0.845039273
  H    0.522908288   1.709233669   1.865022744
