7
charge=0 charge_a=0 charge_b=0 selection_a=1-5 selection_b=6-7 scaling=1.15 benchmark_Eint=-0.788 benchmark_unit=kcal/mol group=HCNO contact=C-H
  C   -1.700000000   0.000000000   0.000000000
  H   -2.787765140   0.000000000  -0.000000000
  H   -1.337649723   1.026186765   0.000000000
  H   -1.336769018  -0.512274047   0.887247178
  H   -1.337354622  -0.511979565  -0.888678938
  F    1.232251895  -0.000417056   0.000308886
  H    0.310075204  -0.000104945   0.000077726
