14
charge=0 charge_a=0 charge_b=0 selection_a=1-2 selection_b=3-14 scaling=1.00 benchmark_Eint=2.330 benchmark_unit=kcal/mol group=HCNO contact=C-H
  H    0.341976244  -0.556655337   0.461721869
  H    0.658976244  -1.072655337   0.889721869
  C   -0.593756254   0.966492829  -0.801664595
  C   -1.851987645   0.514189660  -0.415050306
  C   -2.473308788   1.059946018   0.703101757
  C   -1.837182703   2.056828784   1.434621650
  C   -0.580340396   2.509203933   1.048262826
  C    0.041605385   1.963890890  -0.070532120
  H   -0.110555270   0.542147191  -1.671640796
  H   -2.345349255  -0.261618814  -0.984516314
  H   -3.450655545   0.707306421   1.003594068
  H   -2.320383686   2.481174421   2.304597851
  H   -0.085589702   3.284940427   1.617473369
  H    1.019397537   2.314548300  -0.371958541
