8
charge=0 charge_a=0 charge_b=0 selection_a=1-2 selection_b=3-8 scaling=1.10 benchmark_Eint=-0.869 benchmark_unit=kcal/mol group=HCNO contact=C-H
  F    0.655496934  -0.274524357   1.568710612
  H    0.304496934  -0.127524357   0.728710612
  C   -0.377195577   0.157970797  -0.902690270
  C   -1.561877661  -0.258261482  -0.480503049
  H   -0.084539252   1.197927394  -0.842986402
  H    0.347382477  -0.524773006  -1.326237840
  H   -2.286455714   0.424482321  -0.056955479
  H   -1.854915888  -1.297342612  -0.540503074
