9
charge=0 charge_a=0 charge_b=0 selection_a=1-5 selection_b=6-9 scaling=1.05 benchmark_Eint=0.991 benchmark_unit=kcal/mol group=HCNO contact=C-H
  C   -1.700000000   0.000000000   0.000000000
  H   -2.787765140   0.000000000  -0.000000000
  H   -1.337649723   1.026186765   0.000000000
  H   -1.336769018  -0.512274047   0.887247178
  H   -1.337354622  -0.511979565  -0.888678938
  C    1.527032675  -0.000516825   0.000382779
  C    2.722913484  -0.000295401   0.000177382
  H    0.465585644  -0.000157578   0.000116708
  H    3.784332672   0.000186460  -0.000096696
