14
charge=0 charge_a=0 charge_b=0 selection_a=1-2 selection_b=3-14 scaling=1.25 benchmark_Eint=-0.485 benchmark_unit=kcal/mol group=HCNO contact=C-H
  H    0.341976244  -0.556655337   0.461721869
  H    0.658976244  -1.072655337   0.889721869
  C   -0.827689378   1.347279870  -1.117511211
  C   -2.085920769   0.894976701  -0.730896922
  C   -2.707241912   1.440733059   0.387255141
  C   -2.071115828   2.437615826   1.118775034
  C   -0.814273520   2.889990974   0.732416210
  C   -0.192327740   2.344677931  -0.386378736
  H   -0.344488395   0.922934233  -1.987487412
  H   -2.579282379   0.119168228  -1.300362930
  H   -3.684588670   1.088093462   0.687747452
  H   -2.554316811   2.861961463   1.988751235
  H   -0.319522826   3.665727469   1.301626753
  H    0.785464412   2.695335342  -0.687805157
