11
charge=0 charge_a=0 charge_b=0 selection_a=1-5 selection_b=6-11 scaling=1.15 benchmark_Eint=0.154 benchmark_unit=kcal/mol group=HCNO contact=C-H
  C   -1.485547661  -1.164488879   0.027767246
  H   -0.629547661  -0.493488879   0.011767246
  H   -1.452547661  -1.772488879   0.929767246
  H   -2.403547661  -0.582488879   0.016767246
  H   -1.455547661  -1.811488879  -0.846232754
  C    1.375364906   1.078118986  -0.025707755
  C    0.624751064   2.022634926  -0.572911098
  H    1.473234848   0.978850780   1.047273744
  H    1.923278817   0.366666875  -0.629173778
  H    0.076837154   2.734087037   0.030554925
  H    0.527130273   2.122502623  -1.645131982
