10
charge=0 charge_a=0 charge_b=0 selection_a=1-5 selection_b=6-10 scaling=1.15 benchmark_Eint=-0.262 benchmark_unit=kcal/mol group=HCNO contact=C-C
  C   -1.700000000   0.000000000   0.000000000
  H   -2.787765140   0.000000000  -0.000000000
  H   -1.337649723   1.026186765   0.000000000
  H   -1.336769018  -0.512274047   0.887247178
  H   -1.337354622  -0.511979565  -0.888678938
  C    1.663730239   0.000012276  -0.000009092
  H    2.751495379   0.000012276  -0.000009092
  H    1.301379962  -0.299161651   0.981598894
  H    1.300499257   0.998064471  -0.231361787
  H    1.301084861  -0.700799147  -0.748832623
