10
charge=0 charge_a=0 charge_b=0 selection_a=1-5 selection_b=6-10 scaling=1.00 benchmark_Eint=1.673 benchmark_unit=kcal/mol group=HCNO contact=C-C
  C   -1.700000000   0.000000000   0.000000000
  H   -2.787765140   0.000000000  -0.000000000
  H   -1.337649723   1.026186765   0.000000000
  H   -1.336769018  -0.512274047   0.887247178
  H   -1.337354622  -0.511979565  -0.888678938
  C    1.296177623   0.000136674  -0.000101225
  H    2.383942763   0.000136674  -0.000101225
  H    0.933827346  -0.299037252   0.981506761
  H    0.932946641   0.998188869  -0.231453921
  H    0.933532245  -0.700674748  -0.748924756
