16
charge=0 charge_a=0 charge_b=0 selection_a=1-4 selection_b=5-16 scaling=1.00 benchmark_Eint=2.247 benchmark_unit=kcal/mol group=HCNO contact=C-C
  C    0.000000000   0.000000000  -1.700000000
  C   -1.195880847   0.000000000  -1.700000000
  H    1.061446885   0.000714097  -1.700000000
  H   -2.257300137   0.000279700  -1.700107731
  C    0.000000000   0.000000000   1.117920000
  C    0.695734175  -1.205466282   1.117920000
  C    2.086472794  -1.205157368   1.117920000
  C    2.781351699  -0.000708913   1.117446714
  C    2.086471971   1.203745702   1.117943148
  C    0.695111232   1.204102232   1.118355643
  H   -1.081855285  -0.000242807   1.118206895
  H    0.154060251  -2.141503298   1.117663666
  H    2.626528617  -2.142278317   1.116903485
  H    3.863206984  -0.000466106   1.117159818
  H    2.627291448   2.140794385   1.117703048
  H    0.153327767   2.140246812   1.118341645
