10
charge=0 charge_a=0 charge_b=0 selection_a=1-4 selection_b=5-10 scaling=1.15 benchmark_Eint=0.016 benchmark_unit=kcal/mol group=HCNO contact=C-C
  C    0.000000000   0.000000000  -1.700000000
  C   -1.195880847   0.000000000  -1.700000000
  H    1.061446885   0.000714097  -1.700000000
  H   -2.257300137   0.000279700  -1.700107731
  C   -0.000000000   0.000000000   1.694900000
  C    1.324749906  -0.000827651   1.694900000
  H   -0.568862269   0.920389982   1.694900000
  H   -0.569007482  -0.920203287   1.696081686
  H    1.893757388   0.919375636   1.693718314
  H    1.893584766  -0.920386021   1.695454680
