11
charge=0 charge_a=0 charge_b=0 selection_a=1-5 selection_b=6-11 scaling=1.10 benchmark_Eint=0.202 benchmark_unit=kcal/mol group=HCNO contact=C-C
  C   -1.700000000   0.000000000   0.000000000
  H   -2.787765140   0.000000000  -0.000000000
  H   -1.337649723   1.026186765   0.000000000
  H   -1.336769018  -0.512274047   0.887247178
  H   -1.337354622  -0.511979565  -0.888678938
  C    1.581763597  -0.000535349   0.000396498
  C    1.582321540   1.063866118  -0.788281006
  H    1.581523848   0.089670889   1.078628744
  H    1.582705795  -1.005302012  -0.400836683
  H    1.581379342   2.068632781  -0.387047825
  H    1.583115957   0.974132335  -1.865828322
