8
charge=0 charge_a=0 charge_b=0 selection_a=1-4 selection_b=5-8 scaling=1.00 benchmark_Eint=2.665 benchmark_unit=kcal/mol group=HCNO contact=N-H
  C    0.052610641  -1.106577151  -1.495895895
  C    0.085610641  -1.817577151  -2.456895895
  H    0.022610641  -0.475577151  -0.642895895
  H    0.114610641  -2.448577151  -3.309895895
  N   -0.025502542   0.536403469   0.725122281
  H    0.858505950   1.008720872   0.871201905
  H   -0.229495667   0.014745637   1.567859435
  H   -0.736051875   1.250757161   0.635164243
