8
charge=0 charge_a=0 charge_b=0 selection_a=1-4 selection_b=5-8 scaling=1.25 benchmark_Eint=-3.270 benchmark_unit=kcal/mol group=HCNO contact=N-H
  C    0.052610641  -1.106577151  -1.495895895
  C    0.085610641  -1.817577151  -2.456895895
  H    0.022610641  -0.475577151  -0.642895895
  H    0.114610641  -2.448577151  -3.309895895
  N   -0.037529142   0.789362956   1.067078607
  H    0.846479350   1.261680359   1.213158232
  H   -0.241522267   0.267705124   1.909815762
  H   -0.748078475   1.503716647   0.977120569
