7
charge=0 charge_a=0 charge_b=0 selection_a=1-3 selection_b=4-7 scaling=1.10 benchmark_Eint=-0.745 benchmark_unit=kcal/mol group=HCNO contact=N-H
  C   -2.735331436  -0.059932766   0.222949889
  H   -3.797331436  -0.083932766   0.308949889
  N   -1.594331436  -0.034932766   0.129949889
  C    1.414099367   0.030983772  -0.115259633
  C    2.605766273   0.057752214  -0.211926259
  H    0.356412792   0.007809220  -0.029050298
  H    3.663461802   0.081678125  -0.297475761
