7
charge=0 charge_a=0 charge_b=0 selection_a=1-3 selection_b=4-7 scaling=1.00 benchmark_Eint=2.323 benchmark_unit=kcal/mol group=HCNO contact=N-H
  C   -2.735331436  -0.059932766   0.222949889
  H   -3.797331436  -0.083932766   0.308949889
  N   -1.594331436  -0.034932766   0.129949889
  C    1.236889428   0.027100995  -0.100815703
  C    2.428556334   0.053869437  -0.197482329
  H    0.179202853   0.003926443  -0.014606368
  H    3.486251863   0.077795348  -0.283031830
