12
charge=0 charge_a=0 charge_b=0 selection_a=1-7 selection_b=8-12 scaling=1.05 benchmark_Eint=1.266 benchmark_unit=kcal/mol group=HCNO contact=N-H
  N    0.907607368  -0.903143900  -0.959468583
  C    2.253607368  -0.330143900  -0.922468583
  H    0.540607368  -0.905143900  -1.901468583
  H    2.615607368  -0.329143900   0.105531417
  H    2.209607368   0.708856100  -1.249468583
  H    2.996607368  -0.847143900  -1.541468583
  H    0.914607368  -1.864143900  -0.645468583
  C   -0.896038290   0.891631716   0.947238441
  H   -0.278998505   0.277626435   0.294940642
  H   -1.612971019   0.259840620   1.468011397
  H   -0.265070438   1.397858970   1.673311810
  H   -1.429277086   1.630073524   0.352473712
