8
charge=0 charge_a=0 charge_b=0 selection_a=1-4 selection_b=5-8 scaling=1.15 benchmark_Eint=-2.174 benchmark_unit=kcal/mol group=HCNO contact=N-H
  C    0.052610641  -1.106577151  -1.495895895
  C    0.085610641  -1.817577151  -2.456895895
  H    0.022610641  -0.475577151  -0.642895895
  H    0.114610641  -2.448577151  -3.309895895
  N   -0.032713075   0.688065023   0.930141782
  H    0.851295416   1.160382426   1.076221406
  H   -0.236706200   0.166407191   1.772878936
  H   -0.743262408   1.402418714   0.840183744
