11
charge=0 charge_a=0 charge_b=0 selection_a=1-7 selection_b=8-11 scaling=1.00 benchmark_Eint=1.982 benchmark_unit=kcal/mol group=HCNO contact=N-H
  C   -1.498059411  -0.000000000  -1.600000000
  H   -1.808519061   0.012758830  -2.641457161
  H   -1.835724257   0.896679702  -1.094215496
  H   -1.834939241  -0.909253068  -1.116129316
  N    0.000000000   0.000000000  -1.600000000
  O    0.555879823  -1.083121416  -1.626657474
  O    0.555981287   1.083622540  -1.600000000
  C   -0.000000000   0.000000000   1.578007125
  C    0.000803846  -0.000033365   2.773887701
  H   -0.000000000   0.000000000   0.516560000
  H    0.001801237   0.000033060   3.835306563
