6
charge=0 charge_a=0 charge_b=0 selection_a=1-2 selection_b=3-6 scaling=1.10 benchmark_Eint=0.705 benchmark_unit=kcal/mol group=HCNO contact=N-H
  H    0.341976244  -0.556655337   0.461721869
  H    0.658976244  -1.072655337   0.889721869
  N   -0.600441889   0.977375441  -0.810691258
  H   -0.985314361   1.734728664  -0.259163130
  H   -1.357567098   0.592114029  -1.360492188
  H    0.062931132   1.384006131  -1.457113501
