11
charge=0 charge_a=0 charge_b=0 selection_a=1-7 selection_b=8-11 scaling=1.10 benchmark_Eint=-0.139 benchmark_unit=kcal/mol group=HCNO contact=N-H
  C   -1.498059411  -0.000000000  -1.600000000
  H   -1.808519061   0.012758830  -2.641457161
  H   -1.835724257   0.896679702  -1.094215496
  H   -1.834939241  -0.909253068  -1.116129316
  N    0.000000000   0.000000000  -1.600000000
  O    0.555879823  -1.083121416  -1.626657474
  O    0.555981287   1.083622540  -1.600000000
  B    0.000000001  -0.000000000   1.936952096
  H    0.000000000   0.000000000   0.749600000
  H    0.834364650   0.602415041   2.530657200
  H   -0.833071958  -0.602415193   2.531172633
