7
charge=0 charge_a=0 charge_b=0 selection_a=1-3 selection_b=4-7 scaling=1.15 benchmark_Eint=0.417 benchmark_unit=kcal/mol group=HCNO contact=N-H
  C   -2.735331436  -0.059932766   0.222949889
  H   -3.797331436  -0.083932766   0.308949889
  N   -1.594331436  -0.034932766   0.129949889
  B    2.189567202   0.047974742  -0.178466038
  H    1.006421719   0.022051309  -0.082030867
  H    2.854743447   0.358041636   0.755853546
  H    2.708149354  -0.235129228  -1.208483364
