9
charge=0 charge_a=0 charge_b=0 selection_a=1-5 selection_b=6-9 scaling=1.05 benchmark_Eint=1.046 benchmark_unit=kcal/mol group=HCNO contact=N-C
  C   -1.700000000   0.000000000   0.000000000
  H   -2.787765140   0.000000000  -0.000000000
  H   -1.337649723   1.026186765   0.000000000
  H   -1.336769018  -0.512274047   0.887247178
  H   -1.337354622  -0.511979565  -0.888678938
  N    1.392585749  -0.000471321   0.000349077
  H    1.766156697   0.871070783  -0.355674949
  H    1.765373737  -0.744031244  -0.575926688
  H    1.764762296  -0.127962289   0.932285057
