12
charge=0 charge_a=0 charge_b=0 selection_a=1-7 selection_b=8-12 scaling=1.00 benchmark_Eint=1.991 benchmark_unit=kcal/mol group=HCNO contact=N-C
  N    0.907607368  -0.903143900  -0.959468583
  C    2.253607368  -0.330143900  -0.922468583
  H    0.540607368  -0.905143900  -1.901468583
  H    2.615607368  -0.329143900   0.105531417
  H    2.209607368   0.708856100  -1.249468583
  H    2.996607368  -0.847143900  -1.541468583
  H    0.914607368  -1.864143900  -0.645468583
  C   -0.743498310   0.738865507   0.785237049
  H   -1.360900281   1.352606435   1.437440912
  H    0.254654517   0.649769918   1.209630629
  H   -1.186162900  -0.249371351   0.690342510
  H   -0.679421107   1.203585026  -0.196249009
