13
charge=0 charge_a=0 charge_b=0 selection_a=1-7 selection_b=8-13 scaling=1.25 benchmark_Eint=0.494 benchmark_unit=kcal/mol group=HCNO contact=N-C
  N    0.907607368  -0.903143900  -0.959468583
  C    2.253607368  -0.330143900  -0.922468583
  H    0.540607368  -0.905143900  -1.901468583
  H    2.615607368  -0.329143900   0.105531417
  H    2.209607368   0.708856100  -1.249468583
  H    2.996607368  -0.847143900  -1.541468583
  H    0.914607368  -1.864143900  -0.645468583
  C   -1.295291855   1.288921817   1.369305588
  C   -2.342822792   0.524830702   1.097631693
  H   -0.633298347   1.074072540   2.197753766
  H   -1.058318991   2.161049587   0.774509812
  H   -2.579795655  -0.347297068   1.692427470
  H   -3.004917494   0.739518120   0.270165127
