9
charge=0 charge_a=0 charge_b=0 selection_a=1-3 selection_b=4-9 scaling=1.00 benchmark_Eint=2.160 benchmark_unit=kcal/mol group=HCNO contact=N-C
  C   -2.735331436  -0.059932766   0.222949889
  H   -3.797331436  -0.083932766   0.308949889
  N   -1.594331436  -0.034932766   0.129949889
  C    1.440777390   0.031568304  -0.117434090
  C    1.483183831   1.084173542   0.685801184
  H    1.494101942  -0.979148489   0.265097027
  H    1.352165341   0.138513177  -1.190399933
  H    1.571795880   0.977228669   1.758767026
  H    1.430475774   2.094375658   0.303865919
