12
charge=0 charge_a=0 charge_b=0 selection_a=1-7 selection_b=8-12 scaling=1.05 benchmark_Eint=0.980 benchmark_unit=kcal/mol group=HCNO contact=N-C
  N    0.907607368  -0.903143900  -0.959468583
  C    2.253607368  -0.330143900  -0.922468583
  H    0.540607368  -0.905143900  -1.901468583
  H    2.615607368  -0.329143900   0.105531417
  H    2.209607368   0.708856100  -1.249468583
  H    2.996607368  -0.847143900  -1.541468583
  H    0.914607368  -1.864143900  -0.645468583
  C   -0.818214557   0.813214312   0.864222626
  H   -1.435616528   1.426955240   1.516426489
  H    0.179938270   0.724118722   1.288616206
  H   -1.260879148  -0.175022546   0.769328087
  H   -0.754137354   1.277933831  -0.117263431
