23
charge=0 charge_a=0 charge_b=0 selection_a=1-11 selection_b=12-23 scaling=1.25 benchmark_Eint=-0.387 benchmark_unit=kcal/mol group=HCNO contact=N-C
  C   -0.175446694  -2.007467188   1.577808032
  C   -0.829446694  -2.993467188   2.306808032
  C   -2.215446694  -3.053467188   2.245808032
  C   -2.885446694  -2.126467188   1.458808032
  C   -2.138446694  -1.179467188   0.767808032
  N   -0.807446694  -1.112467188   0.818808032
  H    0.906553306  -1.933467188   1.603808032
  H   -0.263446694  -3.693467188   2.905808032
  H   -2.760446694  -3.806467188   2.798808032
  H   -3.963446694  -2.133467188   1.379808032
  H   -2.630446694  -0.441467188   0.144808032
  C    0.924193393   1.273316037  -0.937197438
  C   -0.235292949   2.035684843  -1.044808902
  C   -0.541283383   2.976911076  -0.067763850
  C    0.310893805   3.155675257   1.016390385
  C    1.469598014   2.394474550   1.123847536
  C    1.776489100   1.452953150   0.146483573
  H    1.162365982   0.541336425  -1.697388641
  H   -0.897514273   1.895208316  -1.888198055
  H   -1.442996016   3.568320915  -0.151464080
  H    0.072721215   3.887654868   1.776581589
  H    2.132601471   2.533782978   1.967391002
  H    2.677247078   0.859893552   0.229014646
