23
charge=0 charge_a=0 charge_b=0 selection_a=1-11 selection_b=12-23 scaling=1.00 benchmark_Eint=2.668 benchmark_unit=kcal/mol group=HCNO contact=N-C
  C   -0.175446694  -2.007467188   1.577808032
  C   -0.829446694  -2.993467188   2.306808032
  C   -2.215446694  -3.053467188   2.245808032
  C   -2.885446694  -2.126467188   1.458808032
  C   -2.138446694  -1.179467188   0.767808032
  N   -0.807446694  -1.112467188   0.818808032
  H    0.906553306  -1.933467188   1.603808032
  H   -0.263446694  -3.693467188   2.905808032
  H   -2.760446694  -3.806467188   2.798808032
  H   -3.963446694  -2.133467188   1.379808032
  H   -2.630446694  -0.441467188   0.144808032
  C    0.577965297   0.796297060  -0.586097672
  C   -0.581521045   1.558665866  -0.693709136
  C   -0.887511479   2.499892099   0.283335916
  C   -0.035334291   2.678656280   1.367490152
  C    1.123369919   1.917455572   1.474947303
  C    1.430261004   0.975934173   0.497583340
  H    0.816137887   0.064317448  -1.346288874
  H   -1.243742369   1.418189339  -1.537098288
  H   -1.789224112   3.091301938   0.199635686
  H   -0.273506881   3.410635891   2.127681355
  H    1.786373375   2.056764001   2.318490768
  H    2.331018982   0.382874575   0.580114412
