12
charge=0 charge_a=0 charge_b=0 selection_a=1-7 selection_b=8-12 scaling=1.15 benchmark_Eint=0.012 benchmark_unit=kcal/mol group=HCNO contact=N-C
  N    0.907607368  -0.903143900  -0.959468583
  C    2.253607368  -0.330143900  -0.922468583
  H    0.540607368  -0.905143900  -1.901468583
  H    2.615607368  -0.329143900   0.105531417
  H    2.209607368   0.708856100  -1.249468583
  H    2.996607368  -0.847143900  -1.541468583
  H    0.914607368  -1.864143900  -0.645468583
  C   -0.967818812   0.962082838   1.022375356
  H   -1.585220784   1.575823766   1.674579219
  H    0.030334014   0.872987248   1.446768937
  H   -1.410483403  -0.026154020   0.927480817
  H   -0.903741609   1.426802357   0.040889299
