9
charge=0 charge_a=0 charge_b=0 selection_a=1-3 selection_b=4-9 scaling=1.05 benchmark_Eint=1.406 benchmark_unit=kcal/mol group=HCNO contact=N-C
  C   -2.735331436  -0.059932766   0.222949889
  H   -3.797331436  -0.083932766   0.308949889
  N   -1.594331436  -0.034932766   0.129949889
  C    1.592368416   0.034889755  -0.129789888
  C    1.634774857   1.087494993   0.673445386
  H    1.645692968  -0.975827038   0.252741229
  H    1.503756367   0.141834628  -1.202755731
  H    1.723386905   0.980550120   1.746411229
  H    1.582066800   2.097697109   0.291510121
