16
charge=0 charge_a=0 charge_b=0 selection_a=1-11 selection_b=12-16 scaling=1.25 benchmark_Eint=-0.398 benchmark_unit=kcal/mol group=HCNO contact=N-C
  C   -0.175446694  -2.007467188   1.577808032
  C   -0.829446694  -2.993467188   2.306808032
  C   -2.215446694  -3.053467188   2.245808032
  C   -2.885446694  -2.126467188   1.458808032
  C   -2.138446694  -1.179467188   0.767808032
  N   -0.807446694  -1.112467188   0.818808032
  H    0.906553306  -1.933467188   1.603808032
  H   -0.263446694  -3.693467188   2.905808032
  H   -2.760446694  -3.806467188   2.798808032
  H   -3.963446694  -2.133467188   1.379808032
  H   -2.630446694  -0.441467188   0.144808032
  C    0.948826758   1.307957128  -0.961834765
  H    1.497670896   2.064581579  -1.518182276
  H    1.457834718   0.350422524  -1.053461057
  H    0.898725013   1.592601846   0.086037460
  H   -0.058625372   1.222273811  -1.363186948
