9
charge=0 charge_a=0 charge_b=0 selection_a=1-3 selection_b=4-9 scaling=1.10 benchmark_Eint=0.943 benchmark_unit=kcal/mol group=HCNO contact=N-C
  C   -2.735331436  -0.059932766   0.222949889
  H   -3.797331436  -0.083932766   0.308949889
  N   -1.594331436  -0.034932766   0.129949889
  C    1.744288272   0.038218411  -0.142172488
  C    1.786694713   1.090823649   0.661062786
  H    1.797612824  -0.972498382   0.240358629
  H    1.655676224   0.145163284  -1.215138331
  H    1.875306762   0.983878776   1.734028629
  H    1.733986657   2.101025765   0.279127521
