23
charge=0 charge_a=0 charge_b=0 selection_a=1-11 selection_b=12-23 scaling=1.15 benchmark_Eint=-0.082 benchmark_unit=kcal/mol group=HCNO contact=N-C
  C   -0.175446694  -2.007467188   1.577808032
  C   -0.829446694  -2.993467188   2.306808032
  C   -2.215446694  -3.053467188   2.245808032
  C   -2.885446694  -2.126467188   1.458808032
  C   -2.138446694  -1.179467188   0.767808032
  N   -0.807446694  -1.112467188   0.818808032
  H    0.906553306  -1.933467188   1.603808032
  H   -0.263446694  -3.693467188   2.905808032
  H   -2.760446694  -3.806467188   2.798808032
  H   -3.963446694  -2.133467188   1.379808032
  H   -2.630446694  -0.441467188   0.144808032
  C    0.785635540   1.082416668  -0.796689980
  C   -0.373850801   1.844785474  -0.904301444
  C   -0.679841236   2.786011707   0.072743608
  C    0.172335952   2.964775888   1.156897843
  C    1.331040162   2.203575180   1.264354995
  C    1.637931247   1.262053781   0.286991032
  H    1.023808130   0.350437056  -1.556881183
  H   -1.036072126   1.704308947  -1.747690596
  H   -1.581553869   3.377421546  -0.010956622
  H   -0.065836638   3.696755499   1.917089047
  H    1.994043618   2.342883609   2.107898460
  H    2.538689225   0.668994183   0.369522104
