10
charge=0 charge_a=0 charge_b=0 selection_a=1-6 selection_b=7-10 scaling=1.10 benchmark_Eint=1.172 benchmark_unit=kcal/mol group=HCNO contact=N-C
  C    0.000000000   0.000000000  -1.700000000
  C   -1.324750165   0.000000000  -1.700000000
  H    0.569437181   0.920034400  -1.700000000
  H    0.568432464  -0.920558601  -1.701181686
  H   -1.893182629   0.920558601  -1.698818314
  H   -1.894159417  -0.919202805  -1.700554680
  N    0.000000000   0.000000000   1.758730000
  H    0.912471092   0.232426753   2.131916697
  H   -0.254572253  -0.905587195   2.131625159
  H   -0.656816478   0.673160216   2.131183271
