7
charge=0 charge_a=0 charge_b=0 selection_a=1-3 selection_b=4-7 scaling=1.15 benchmark_Eint=0.659 benchmark_unit=kcal/mol group=HCNO contact=N-C
  C   -2.735331436  -0.059932766   0.222949889
  H   -3.797331436  -0.083932766   0.308949889
  N   -1.594331436  -0.034932766   0.129949889
  C    1.879766586   0.041186823  -0.153214980
  C    1.918028620   0.991546167   0.571687864
  H    1.845861289  -0.802771841  -0.796063488
  H    1.952117680   1.834882399   1.215297167
