19
charge=0 charge_a=0 charge_b=0 selection_a=1-7 selection_b=8-19 scaling=1.25 benchmark_Eint=0.102 benchmark_unit=kcal/mol group=HCNO contact=N-C
  N    0.907607368  -0.903143900  -0.959468583
  C    2.253607368  -0.330143900  -0.922468583
  H    0.540607368  -0.905143900  -1.901468583
  H    2.615607368  -0.329143900   0.105531417
  H    2.209607368   0.708856100  -1.249468583
  H    2.996607368  -0.847143900  -1.541468583
  H    0.914607368  -1.864143900  -0.645468583
  C   -1.148718938   1.143069722   1.214357409
  C   -1.976759047   1.452932657   0.139401811
  C   -3.076198194   0.650085406  -0.144893556
  C   -3.347535471  -0.462036504   0.644482108
  C   -2.520685791  -0.771515328   1.718777907
  C   -1.420835330   0.031531107   2.003962738
  H   -0.293628772   1.767767852   1.435680821
  H   -1.764231689   2.317817425  -0.474098361
  H   -3.718699242   0.890860320  -0.981001708
  H   -4.202625637  -1.086734635   0.423158694
  H   -2.732022720  -1.636784207   2.332937877
  H   -0.776609017  -0.208252183   2.839051015
