8
charge=0 charge_a=0 charge_b=0 selection_a=1-5 selection_b=6-8 scaling=1.00 benchmark_Eint=1.856 benchmark_unit=kcal/mol group=HCNO contact=N-C
  C   -1.700000000   0.000000000   0.000000000
  H   -2.787765140   0.000000000  -0.000000000
  H   -1.337649723   1.026186765   0.000000000
  H   -1.336769018  -0.512274047   0.887247178
  H   -1.337354622  -0.511979565  -0.888678938
  C    2.296315342  -0.000777189   0.000575613
  H    3.362061924  -0.000397876   0.000294681
  N    1.151258676  -0.000389644   0.000288584
