9
charge=0 charge_a=0 charge_b=0 selection_a=1-3 selection_b=4-9 scaling=1.15 benchmark_Eint=0.662 benchmark_unit=kcal/mol group=HCNO contact=N-C
  C   -2.735331436  -0.059932766   0.222949889
  H   -3.797331436  -0.083932766   0.308949889
  N   -1.594331436  -0.034932766   0.129949889
  C    1.895879298   0.041539862  -0.154528286
  C    1.938285739   1.094145100   0.648706988
  H    1.949203850  -0.969176931   0.228002832
  H    1.807267249   0.148484735  -1.227494129
  H    2.026897788   0.987200227   1.721672831
  H    1.885577683   2.104347216   0.266771723
