14
charge=0 charge_a=0 charge_b=0 selection_a=1-7 selection_b=8-14 scaling=1.25 benchmark_Eint=1.126 benchmark_unit=kcal/mol group=HCNO contact=N-N
  N    0.907607368  -0.903143900  -0.959468583
  C    2.253607368  -0.330143900  -0.922468583
  H    0.540607368  -0.905143900  -1.901468583
  H    2.615607368  -0.329143900   0.105531417
  H    2.209607368   0.708856100  -1.249468583
  H    2.996607368  -0.847143900  -1.541468583
  H    0.914607368  -1.864143900  -0.645468583
  N   -1.638412821   1.630355368   1.732032686
  C   -2.984278389   1.057010721   1.695484266
  H   -1.645411556   2.591190460   1.417701740
  H   -2.941897784   0.019284449   2.025873534
  H   -3.343969562   1.052969467   0.666410931
  H   -3.728432613   1.576969849   2.310607015
  H   -1.271487020   1.632707263   2.674118630
