6
charge=0 charge_a=0 charge_b=0 selection_a=1-3 selection_b=4-6 scaling=1.25 benchmark_Eint=1.260 benchmark_unit=kcal/mol group=HCNO contact=N-N
  C   -2.735331436  -0.059932766   0.222949889
  H   -3.797331436  -0.083932766   0.308949889
  N   -1.594331436  -0.034932766   0.129949889
  C    3.676305850   0.080550084  -0.299646313
  H    4.738305850   0.104550084  -0.385646313
  N    2.535305850   0.055550084  -0.206646313
