6
charge=0 charge_a=0 charge_b=0 selection_a=1-3 selection_b=4-6 scaling=1.10 benchmark_Eint=1.685 benchmark_unit=kcal/mol group=HCNO contact=N-N
  C   -2.735331436  -0.059932766   0.222949889
  H   -3.797331436  -0.083932766   0.308949889
  N   -1.594331436  -0.034932766   0.129949889
  C    3.180787639   0.069692981  -0.259257888
  H    4.242787639   0.093692980  -0.345257887
  N    2.039787639   0.044692981  -0.166257888
