22
charge=0 charge_a=0 charge_b=0 selection_a=1-11 selection_b=12-22 scaling=1.05 benchmark_Eint=1.987 benchmark_unit=kcal/mol group=HCNO contact=N-N
  C   -0.175446694  -2.007467188   1.577808032
  C   -0.829446694  -2.993467188   2.306808032
  C   -2.215446694  -3.053467188   2.245808032
  C   -2.885446694  -2.126467188   1.458808032
  C   -2.138446694  -1.179467188   0.767808032
  N   -0.807446694  -1.112467188   0.818808032
  H    0.906553306  -1.933467188   1.603808032
  H   -0.263446694  -3.693467188   2.905808032
  H   -2.760446694  -3.806467188   2.798808032
  H   -3.963446694  -2.133467188   1.379808032
  H   -2.630446694  -0.441467188   0.144808032
  C    2.259773507   1.764051899  -0.688516227
  C    3.002387321   2.724411789  -1.364967709
  C    2.430975390   3.350782384  -2.464724629
  C    1.143413717   2.990196306  -2.838570346
  C    0.484504279   2.017707597  -2.095332119
  N    1.023196451   1.409718421  -1.037593538
  H    2.677039687   1.256244245   0.174557537
  H    4.002181948   2.971354351  -1.035442179
  H    2.977104460   4.103455691  -3.017055083
  H    0.656916559   3.449878326  -3.687326468
  H   -0.521332361   1.713101619  -2.360558158
