22
charge=0 charge_a=0 charge_b=0 selection_a=1-11 selection_b=12-22 scaling=1.00 benchmark_Eint=2.403 benchmark_unit=kcal/mol group=HCNO contact=N-N
  C   -0.175446694  -2.007467188   1.577808032
  C   -0.829446694  -2.993467188   2.306808032
  C   -2.215446694  -3.053467188   2.245808032
  C   -2.885446694  -2.126467188   1.458808032
  C   -2.138446694  -1.179467188   0.767808032
  N   -0.807446694  -1.112467188   0.818808032
  H    0.906553306  -1.933467188   1.603808032
  H   -0.263446694  -3.693467188   2.905808032
  H   -2.760446694  -3.806467188   2.798808032
  H   -3.963446694  -2.133467188   1.379808032
  H   -2.630446694  -0.441467188   0.144808032
  C    2.172730754   1.644127937  -0.600248721
  C    2.915344567   2.604487826  -1.276700203
  C    2.343932636   3.230858421  -2.376457123
  C    1.056370964   2.870272343  -2.750302840
  C    0.397461525   1.897783634  -2.007064613
  N    0.936153697   1.289794458  -0.949326032
  H    2.589996933   1.136320282   0.262825042
  H    3.915139194   2.851430388  -0.947174674
  H    2.890061707   3.983531728  -2.928787577
  H    0.569873805   3.329954363  -3.599058963
  H   -0.608375115   1.593177656  -2.272290652
