22
charge=0 charge_a=0 charge_b=0 selection_a=1-11 selection_b=12-22 scaling=1.10 benchmark_Eint=1.694 benchmark_unit=kcal/mol group=HCNO contact=N-N
  C   -0.175446694  -2.007467188   1.577808032
  C   -0.829446694  -2.993467188   2.306808032
  C   -2.215446694  -3.053467188   2.245808032
  C   -2.885446694  -2.126467188   1.458808032
  C   -2.138446694  -1.179467188   0.767808032
  N   -0.807446694  -1.112467188   0.818808032
  H    0.906553306  -1.933467188   1.603808032
  H   -0.263446694  -3.693467188   2.905808032
  H   -2.760446694  -3.806467188   2.798808032
  H   -3.963446694  -2.133467188   1.379808032
  H   -2.630446694  -0.441467188   0.144808032
  C    2.346977750   1.884198356  -0.776947495
  C    3.089591564   2.844558245  -1.453398976
  C    2.518179633   3.470928840  -2.553155896
  C    1.230617960   3.110342762  -2.927001614
  C    0.571708522   2.137854053  -2.183763387
  N    1.110400694   1.529864877  -1.126024806
  H    2.764243930   1.376390702   0.086126269
  H    4.089386191   3.091500807  -1.123873447
  H    3.064308703   4.223602147  -3.105486351
  H    0.744120802   3.570024782  -3.775757736
  H   -0.434128118   1.833248075  -2.448989425
