18
charge=0 charge_a=0 charge_b=0 selection_a=1-11 selection_b=12-18 scaling=1.05 benchmark_Eint=-1.574 benchmark_unit=kcal/mol group=HCNO contact=N-N
  C   -0.175446694  -2.007467188   1.577808032
  C   -0.829446694  -2.993467188   2.306808032
  C   -2.215446694  -3.053467188   2.245808032
  C   -2.885446694  -2.126467188   1.458808032
  C   -2.138446694  -1.179467188   0.767808032
  N   -0.807446694  -1.112467188   0.818808032
  H    0.906553306  -1.933467188   1.603808032
  H   -0.263446694  -3.693467188   2.905808032
  H   -2.760446694  -3.806467188   2.798808032
  H   -3.963446694  -2.133467188   1.379808032
  H   -2.630446694  -0.441467188   0.144808032
  C    0.130828158   1.649795935   0.584015532
  H    0.598550069   2.581002368   0.275354240
  H    0.549488276   1.310228744   1.523849468
  H   -0.946598246   1.760941813   0.618058736
  N    0.461375041   0.635663751  -0.467866909
  O   -0.306542644   0.539386880  -1.408025510
  O    1.488496002  -0.002335502  -0.321810465
