14
charge=0 charge_a=0 charge_b=0 selection_a=1-7 selection_b=8-14 scaling=1.10 benchmark_Eint=1.723 benchmark_unit=kcal/mol group=HCNO contact=N-N
  N    0.907607368  -0.903143900  -0.959468583
  C    2.253607368  -0.330143900  -0.922468583
  H    0.540607368  -0.905143900  -1.901468583
  H    2.615607368  -0.329143900   0.105531417
  H    2.209607368   0.708856100  -1.249468583
  H    2.996607368  -0.847143900  -1.541468583
  H    0.914607368  -1.864143900  -0.645468583
  N   -1.332912181   1.326357132   1.409075561
  C   -2.678777749   0.753012484   1.372527141
  H   -1.339910916   2.287192224   1.094744615
  H   -2.636397144  -0.284713788   1.702916409
  H   -3.038468922   0.748971231   0.343453806
  H   -3.422931973   1.272971613   1.987649890
  H   -0.965986380   1.328709026   2.351161505
