11
charge=0 charge_a=0 charge_b=0 selection_a=1-2 selection_b=3-11 scaling=1.05 benchmark_Eint=-1.127 benchmark_unit=kcal/mol group=HCNO contact=O-H
  F    0.655496934  -0.274524357   1.568710612
  H    0.304496934  -0.127524357   0.728710612
  C   -0.069441556  -0.691533345  -1.654912346
  C   -0.728245515  -0.167812740  -2.716050448
  C   -1.347692199   1.035848733  -2.246531692
  C   -1.014099105   1.145146655  -0.938542544
  H   -1.238644802   1.867799693  -0.175505312
  H   -1.955993665   1.720012067  -2.810897584
  H    0.531539181  -1.570931503  -1.516991961
  H   -0.771453871  -0.580600940  -3.708034289
  O   -0.233275101   0.097696410  -0.558265200
