7
charge=0 charge_a=0 charge_b=0 selection_a=1-3 selection_b=4-7 scaling=1.25 benchmark_Eint=-2.669 benchmark_unit=kcal/mol group=HCNO contact=O-H
  H   -1.004584200  -0.486313027   1.938960870
  H   -0.430584200   0.925686973   1.990960870
  O   -0.518584200   0.158686973   1.419960870
  C    0.545634891  -0.166964495  -1.494029696
  C    0.953364116  -0.292569934  -2.611218647
  H    0.183496925  -0.056150133  -0.502441943
  H    1.315059704  -0.404280585  -3.602837542
