11
charge=0 charge_a=0 charge_b=0 selection_a=1-6 selection_b=7-11 scaling=1.10 benchmark_Eint=0.265 benchmark_unit=kcal/mol group=HCNO contact=O-H
  C    0.278322841  -0.303120487  -2.583741411
  H   -0.093677159  -1.181120487  -3.119741411
  H    1.339322841  -1.257120487  -1.244741411
  H    1.114322841   0.125879513  -3.142741411
  H   -0.518677159   0.434879513  -2.537741411
  O    0.634322841  -0.607120487  -1.240741411
  C   -0.688462771   0.658938675   1.346639620
  H   -0.234519170   0.224462030   0.458721690
  H    0.073470577   0.800894820   2.110618041
  H   -1.132243449   1.618801629   1.095062951
  H   -1.459295502  -0.009537257   1.723921781
