8
charge=0 charge_a=0 charge_b=0 selection_a=1-3 selection_b=4-8 scaling=1.00 benchmark_Eint=2.217 benchmark_unit=kcal/mol group=HCNO contact=O-H
  H   -1.004584200  -0.486313027   1.938960870
  H   -0.430584200   0.925686973   1.990960870
  O   -0.518584200   0.158686973   1.419960870
  C    0.509734540  -0.155978974  -1.395729181
  H    0.138617557  -0.042417028  -0.379555540
  H   -0.203115013  -0.735440491  -1.979190289
  H    0.635862198   0.824363396  -1.848045058
  H    1.466825382  -0.672697152  -1.376638755
