7
charge=0 charge_a=0 charge_b=0 selection_a=1-3 selection_b=4-7 scaling=1.05 benchmark_Eint=1.430 benchmark_unit=kcal/mol group=HCNO contact=O-H
  H   -1.004584200  -0.486313027   1.938960870
  H   -0.430584200   0.925686973   1.990960870
  O   -0.518584200   0.158686973   1.419960870
  B    0.642968018  -0.196748472  -1.760542311
  H    0.237874573  -0.072789715  -0.651336051
  H    0.012519615  -0.812294902  -2.557531272
  H    1.678218970   0.293582511  -2.073339360
