12
charge=0 charge_a=0 charge_b=0 selection_a=1-2 selection_b=3-12 scaling=1.25 benchmark_Eint=-0.638 benchmark_unit=kcal/mol group=HCNO contact=O-H
  H    0.341976244  -0.556655337   0.461721869
  H    0.658976244  -1.072655337   0.889721869
  C   -1.198453154   1.950794407  -1.618100789
  O   -0.681787778   1.109787045  -0.920521038
  C   -1.138178617   3.423302772  -1.266170262
  C   -1.939384421   1.588534553  -2.887649786
  H   -2.148245361   3.814385637  -1.123214447
  H   -2.966375147   1.956940535  -2.847003979
  H   -0.692312758   3.992271215  -2.084391838
  H   -0.560086277   3.567504867  -0.359002691
  H   -1.942290195   0.510200988  -3.024113256
  H   -1.466199867   2.065240472  -3.748136186
