13
charge=0 charge_a=0 charge_b=0 selection_a=1-9 selection_b=10-13 scaling=1.10 benchmark_Eint=-0.586 benchmark_unit=kcal/mol group=HCNO contact=O-H
  C    2.211197145  -0.883241953   0.978750253
  C    2.707197145  -2.031241953   1.498750253
  C    1.636197145  -2.982241953   1.459750253
  C    0.577197145  -2.334241953   0.918750253
  H   -0.431802855  -2.626241953   0.691750253
  H    1.659197145  -4.005241953   1.790750253
  H    2.628197145   0.090758047   0.802750253
  H    3.706197145  -2.187241953   1.864750253
  O    0.909197145  -1.049241953   0.618750253
  C   -0.848242131   0.978897960  -0.577267577
  C   -1.563180471   1.804322787  -1.064779653
  H   -0.213331147   0.246190818  -0.145181605
  H   -2.197668482   2.536833806  -1.497750288
