11
charge=0 charge_a=0 charge_b=0 selection_a=1-2 selection_b=3-11 scaling=1.15 benchmark_Eint=-4.540 benchmark_unit=kcal/mol group=HCNO contact=O-H
  F    0.655496934  -0.274524357   1.568710612
  H    0.304496934  -0.127524357   0.728710612
  C   -0.120657941  -0.670083748  -1.777481471
  C   -0.779461900  -0.146363144  -2.838619573
  C   -1.398908584   1.057298330  -2.369100817
  C   -1.065315489   1.166596252  -1.061111669
  H   -1.289861186   1.889249290  -0.298074437
  H   -2.007210049   1.741461664  -2.933466709
  H    0.480322797  -1.549481906  -1.639561086
  H   -0.822670255  -0.559151344  -3.830603414
  O   -0.284491485   0.119146007  -0.680834324
