14
charge=0 charge_a=0 charge_b=0 selection_a=1-5 selection_b=6-14 scaling=1.15 benchmark_Eint=-0.138 benchmark_unit=kcal/mol group=HCNO contact=O-H
  C   -1.485547661  -1.164488879   0.027767246
  H   -0.629547661  -0.493488879   0.011767246
  H   -1.452547661  -1.772488879   0.929767246
  H   -2.403547661  -0.582488879   0.016767246
  H   -1.455547661  -1.811488879  -0.846232754
  C    2.171086139   0.856021689  -0.900108560
  C    3.056101590   1.842430718  -0.620707633
  C    2.530790913   2.539610627   0.515492995
  C    1.369728962   1.919339137   0.833713714
  H    0.630757806   2.078818272   1.597495120
  H    2.963567267   3.385053031   1.020023241
  H    2.131761351   0.086613190  -1.648443460
  H    3.967501306   2.051897635  -1.151525086
  O    1.132424038   0.887682861  -0.021166804
