21
charge=0 charge_a=0 charge_b=0 selection_a=1-9 selection_b=10-21 scaling=1.05 benchmark_Eint=0.666 benchmark_unit=kcal/mol group=HCNO contact=O-C
  C    2.211197145  -0.883241953   0.978750253
  C    2.707197145  -2.031241953   1.498750253
  C    1.636197145  -2.982241953   1.459750253
  C    0.577197145  -2.334241953   0.918750253
  H   -0.431802855  -2.626241953   0.691750253
  H    1.659197145  -4.005241953   1.790750253
  H    2.628197145   0.090758047   0.802750253
  H    3.706197145  -2.187241953   1.864750253
  O    0.909197145  -1.049241953   0.618750253
  C   -0.746638677   0.861644395  -0.508121778
  C    0.365664955   1.629308498  -0.840788961
  C    0.992737362   1.448459552  -2.068888247
  C    0.508611445   0.500580448  -2.963706832
  C   -0.602933614  -0.266131863  -2.631759828
  C   -1.230974148  -0.085391023  -1.403434611
  H   -1.234608124   1.002526575   0.447100201
  H    0.741533016   2.365735971  -0.143670766
  H    1.857680179   2.044638791  -2.326378514
  H    0.996580893   0.359698267  -3.918928811
  H   -0.979560248  -1.003511128  -3.328157845
  H   -2.095433044  -0.681362271  -1.143771199
