21
charge=0 charge_a=0 charge_b=0 selection_a=1-9 selection_b=10-21 scaling=1.00 benchmark_Eint=2.098 benchmark_unit=kcal/mol group=HCNO contact=O-C
  C    2.211197145  -0.883241953   0.978750253
  C    2.707197145  -2.031241953   1.498750253
  C    1.636197145  -2.982241953   1.459750253
  C    0.577197145  -2.334241953   0.918750253
  H   -0.431802855  -2.626241953   0.691750253
  H    1.659197145  -4.005241953   1.790750253
  H    2.628197145   0.090758047   0.802750253
  H    3.706197145  -2.187241953   1.864750253
  O    0.909197145  -1.049241953   0.618750253
  C   -0.667862726   0.770734482  -0.454511140
  C    0.444440906   1.538398586  -0.787178322
  C    1.071513313   1.357549639  -2.015277608
  C    0.587387397   0.409670536  -2.910096194
  C   -0.524157663  -0.357041775  -2.578149190
  C   -1.152198196  -0.176300936  -1.349823973
  H   -1.155832173   0.911616663   0.500710840
  H    0.820308967   2.274826059  -0.090060127
  H    1.936456130   1.953728878  -2.272767875
  H    1.075356844   0.268788355  -3.865318173
  H   -0.900784297  -1.094421041  -3.274547206
  H   -2.016657093  -0.772272183  -1.090160560
