9
charge=0 charge_a=0 charge_b=0 selection_a=1-3 selection_b=4-9 scaling=1.25 benchmark_Eint=0.445 benchmark_unit=kcal/mol group=HCNO contact=O-C
  H   -1.004584200  -0.486313027   1.938960870
  H   -0.430584200   0.925686973   1.990960870
  O   -0.518584200   0.158686973   1.419960870
  C    0.711056043  -0.217583434  -1.946977478
  C    0.212652979  -1.444179290  -1.991921795
  H    0.132749986   0.643669874  -2.254429658
  H    1.718310913  -0.025588598  -1.601838940
  H   -0.794601891  -1.636174126  -2.337060333
  H    0.790442428  -2.305162747  -1.685282202
