15
charge=0 charge_a=0 charge_b=0 selection_a=1-9 selection_b=10-15 scaling=1.25 benchmark_Eint=-0.035 benchmark_unit=kcal/mol group=HCNO contact=O-C
  C    2.211197145  -0.883241953   0.978750253
  C    2.707197145  -2.031241953   1.498750253
  C    1.636197145  -2.982241953   1.459750253
  C    0.577197145  -2.334241953   0.918750253
  H   -0.431802855  -2.626241953   0.691750253
  H    1.659197145  -4.005241953   1.790750253
  H    2.628197145   0.090758047   0.802750253
  H    3.706197145  -2.187241953   1.864750253
  O    0.909197145  -1.049241953   0.618750253
  C   -1.177884042   1.359315039  -0.801603979
  C   -0.579822242   1.187845688  -1.971169430
  H   -2.044129060   0.778084247  -0.514354376
  H   -0.825692893   2.089015125  -0.084635235
  H   -0.932013392   0.458145602  -2.688138174
  H    0.285527768   1.768871006  -2.258814940
