14
charge=0 charge_a=0 charge_b=0 selection_a=1-5 selection_b=6-14 scaling=1.05 benchmark_Eint=0.671 benchmark_unit=kcal/mol group=HCNO contact=O-C
  C   -1.700000000   0.000000000   0.000000000
  H   -2.787765140   0.000000000  -0.000000000
  H   -1.337649723   1.026186765   0.000000000
  H   -1.336769018  -0.512274047   0.887247178
  H   -1.337354622  -0.511979565  -0.888678938
  C    1.946240423  -0.833783793  -0.707280265
  C    3.247093630  -0.546266982  -0.463487288
  C    3.247196389   0.545906296   0.463939539
  C    1.946250118   0.832261485   0.708081925
  H    1.451961620   1.559909323   1.325399919
  H    4.101925236   1.043831081   0.885992269
  H    1.451592009  -1.560784463  -1.323992494
  H    4.101263016  -1.044059141  -0.886441928
  O    1.135588071  -0.000384340   0.000284656
