12
charge=0 charge_a=0 charge_b=0 selection_a=1-6 selection_b=7-12 scaling=1.15 benchmark_Eint=0.662 benchmark_unit=kcal/mol group=HCNO contact=O-C
  C    0.278322841  -0.303120487  -2.583741411
  H   -0.093677159  -1.181120487  -3.119741411
  H    1.339322841  -1.257120487  -1.244741411
  H    1.114322841   0.125879513  -3.142741411
  H   -0.518677159   0.434879513  -2.537741411
  O    0.634322841  -0.607120487  -1.240741411
  C   -0.735912148   0.704353229   1.439451045
  C    0.065774972  -0.021555218   2.204511623
  H   -0.456769244   1.692593315   1.098595103
  H   -1.704497895   0.339705485   1.124143778
  H    1.034360719   0.343092527   2.519818891
  H   -0.213052524  -1.008947238   2.545793364
