8
charge=0 charge_a=0 charge_b=0 selection_a=1-3 selection_b=4-8 scaling=1.10 benchmark_Eint=0.331 benchmark_unit=kcal/mol group=HCNO contact=O-C
  H   -1.004584200  -0.486313027   1.938960870
  H   -0.430584200   0.925686973   1.990960870
  O   -0.518584200   0.158686973   1.419960870
  C    0.506908829  -0.155859656  -1.388754242
  H    0.877853337  -0.269845745  -2.404943370
  H    0.167783896   0.867400076  -1.239453202
  H   -0.322325958  -0.839550410  -1.225948775
  H    1.305072498  -0.379167090  -0.684159644
