12
charge=0 charge_a=0 charge_b=0 selection_a=1-6 selection_b=7-12 scaling=1.25 benchmark_Eint=0.380 benchmark_unit=kcal/mol group=HCNO contact=O-C
  C    0.278322841  -0.303120487  -2.583741411
  H   -0.093677159  -1.181120487  -3.119741411
  H    1.339322841  -1.257120487  -1.244741411
  H    1.114322841   0.125879513  -3.142741411
  H   -0.518677159   0.434879513  -2.537741411
  O    0.634322841  -0.607120487  -1.240741411
  C   -0.854969537   0.818304952   1.672328413
  C   -0.053282417   0.092396505   2.437388991
  H   -0.575826634   1.806545037   1.331472471
  H   -1.823555284   0.453657207   1.357021145
  H    0.915303330   0.457044249   2.752696258
  H   -0.332109914  -0.894995515   2.778670731
