14
charge=0 charge_a=0 charge_b=0 selection_a=1-4 selection_b=5-14 scaling=1.25 benchmark_Eint=0.379 benchmark_unit=kcal/mol group=HCNO contact=O-C
  C    0.000000000   0.000000000  -1.700000000
  C   -1.195880847   0.000000000  -1.700000000
  H    1.061446885   0.000714097  -1.700000000
  H   -2.257300137   0.000279700  -1.700107731
  C   -0.000000000  -0.000000000   3.086399933
  O   -0.000000000   0.000000000   1.877742000
  C    0.833645419   0.983686762   3.882116383
  C   -0.831636330  -0.982104407   3.883781866
  H    1.553426696   0.445720814   4.503505595
  H   -0.195440756  -1.561673015   4.555675028
  H    0.199748316   1.559114981   4.559659613
  H    1.361176676   1.654712955   3.211763774
  H   -1.363064453  -1.652690316   3.213459042
  H   -1.547915851  -0.446771905   4.509842374
