15
charge=0 charge_a=0 charge_b=0 selection_a=1-3 selection_b=4-15 scaling=1.10 benchmark_Eint=0.695 benchmark_unit=kcal/mol group=HCNO contact=O-C
  H   -1.004584200  -0.486313027   1.938960870
  H   -0.430584200   0.925686973   1.990960870
  O   -0.518584200   0.158686973   1.419960870
  C    0.529680537  -0.162082457  -1.450344296
  C    1.305691294  -1.244436951  -1.045979297
  C    0.781447370  -2.531703985  -1.093580684
  C   -0.517778909  -2.736933330  -1.544629452
  C   -1.293070979  -1.655789466  -1.949128095
  C   -0.769025006  -0.367747646  -1.902127144
  H    0.937589814   0.839251443  -1.413582311
  H    2.315793165  -1.083351523  -0.694807409
  H    1.384668366  -3.372269261  -0.778253163
  H   -0.925688186  -3.738267229  -1.581391437
  H   -2.303891537  -1.815664264  -2.300166340
  H   -1.371105836   0.474169436  -2.216086219
