10
charge=0 charge_a=0 charge_b=0 selection_a=1-6 selection_b=7-10 scaling=1.10 benchmark_Eint=1.077 benchmark_unit=kcal/mol group=HCNO contact=O-C
  C    0.278322841  -0.303120487  -2.583741411
  H   -0.093677159  -1.181120487  -3.119741411
  H    1.339322841  -1.257120487  -1.244741411
  H    1.114322841   0.125879513  -3.142741411
  H   -0.518677159   0.434879513  -2.537741411
  O    0.634322841  -0.607120487  -1.240741411
  C   -0.701108690   0.671042286   1.371375156
  C    0.022424500   0.015567625   2.062015216
  H   -1.342822274   1.253357072   0.758363602
  H    0.664750306  -0.565958692   2.675085930
