18
charge=0 charge_a=0 charge_b=0 selection_a=1-6 selection_b=7-18 scaling=1.15 benchmark_Eint=0.280 benchmark_unit=kcal/mol group=HCNO contact=O-C
  C    0.278322841  -0.303120487  -2.583741411
  H   -0.093677159  -1.181120487  -3.119741411
  H    1.339322841  -1.257120487  -1.244741411
  H    1.114322841   0.125879513  -3.142741411
  H   -0.518677159   0.434879513  -2.537741411
  O    0.634322841  -0.607120487  -1.240741411
  C   -0.677324087   0.648277664   1.324852250
  C   -1.072797088  -0.619049238   1.742797975
  C   -0.230378119  -1.380250721   2.545952122
  C    1.006736367  -0.875221199   2.930719493
  C    1.401834152   0.391092273   2.513686002
  C    0.559317186   1.153288444   1.710500370
  H   -1.332763052   1.240528893   0.700313024
  H   -2.034958551  -1.010879446   1.442314353
  H   -0.537878101  -2.365428055   2.869566675
  H    1.662175333  -1.467472428   3.555258718
  H    2.364370831   0.783935911   2.813257391
  H    0.865539420   2.138282102   1.385059996
