11
charge=0 charge_a=0 charge_b=0 selection_a=1-6 selection_b=7-11 scaling=1.10 benchmark_Eint=0.194 benchmark_unit=kcal/mol group=HCNO contact=O-C
  C    0.278322841  -0.303120487  -2.583741411
  H   -0.093677159  -1.181120487  -3.119741411
  H    1.339322841  -1.257120487  -1.244741411
  H    1.114322841   0.125879513  -3.142741411
  H   -0.518677159   0.434879513  -2.537741411
  O    0.634322841  -0.607120487  -1.240741411
  C   -0.607512686   0.581482643   1.189561700
  H   -1.061178938   1.015708283   2.077744128
  H   -0.541702116   1.337685669   0.409700845
  H    0.389584017   0.221532225   1.429983958
  H   -1.218017787  -0.247861613   0.839052603
