14
charge=0 charge_a=0 charge_b=0 selection_a=1-5 selection_b=6-14 scaling=1.00 benchmark_Eint=1.700 benchmark_unit=kcal/mol group=HCNO contact=O-C
  C   -1.700000000   0.000000000   0.000000000
  H   -2.787765140   0.000000000  -0.000000000
  H   -1.337649723   1.026186765   0.000000000
  H   -1.336769018  -0.512274047   0.887247178
  H   -1.337354622  -0.511979565  -0.888678938
  C    1.824195574  -0.833742487  -0.707310858
  C    3.125048781  -0.546225676  -0.463517881
  C    3.125151541   0.545947602   0.463908947
  C    1.824205269   0.832302792   0.708051332
  H    1.329916772   1.559950629   1.325369326
  H    3.979880388   1.043872387   0.885961677
  H    1.329547160  -1.560743156  -1.324023087
  H    3.979218167  -1.044017835  -0.886472521
  O    1.013543222  -0.000343034   0.000254063
