10
charge=0 charge_a=0 charge_b=0 selection_a=1-3 selection_b=4-10 scaling=1.15 benchmark_Eint=1.473 benchmark_unit=kcal/mol group=HCNO contact=O-N
  H   -1.004584200  -0.486313027   1.938960870
  H   -0.430584200   0.925686973   1.990960870
  O   -0.518584200   0.158686973   1.419960870
  N    0.803584429  -0.245897157  -2.200333997
  C    0.418032920  -1.587821462  -2.638515687
  H    1.807430470  -0.129770590  -2.229740566
  H   -0.665930575  -1.686487130  -2.582683553
  H    0.844001298  -2.323533753  -1.956119639
  H    0.729071003  -1.852289973  -3.656263553
  H    0.408837307   0.460205188  -2.806766341
