13
charge=0 charge_a=0 charge_b=0 selection_a=1-3 selection_b=4-13 scaling=1.15 benchmark_Eint=1.614 benchmark_unit=kcal/mol group=HCNO contact=O-N
  C   -2.735331436  -0.059932766   0.222949889
  H   -3.797331436  -0.083932766   0.308949889
  N   -1.594331436  -0.034932766   0.129949889
  C    3.333629384   0.073041836  -0.271715629
  O    2.129253547   0.046653233  -0.173550026
  C    4.229736386   0.155116229   0.947310637
  C    4.025164095   0.026384195  -1.617660950
  H    4.830172098   1.067020532   0.908265836
  H    4.670010433   0.898272619  -1.744423626
  H    4.929297350  -0.682970192   0.962594931
  H    3.630844610   0.151941059   1.852438561
  H    3.288039553  -0.003073799  -2.415917573
  H    4.667666081  -0.853904275  -1.679889623
