21
charge=0 charge_a=0 charge_b=0 selection_a=1-11 selection_b=12-21 scaling=1.05 benchmark_Eint=1.935 benchmark_unit=kcal/mol group=HCNO contact=O-N
  C   -0.175446694  -2.007467188   1.577808032
  C   -0.829446694  -2.993467188   2.306808032
  C   -2.215446694  -3.053467188   2.245808032
  C   -2.885446694  -2.126467188   1.458808032
  C   -2.138446694  -1.179467188   0.767808032
  N   -0.807446694  -1.112467188   0.818808032
  H    0.906553306  -1.933467188   1.603808032
  H   -0.263446694  -3.693467188   2.905808032
  H   -2.760446694  -3.806467188   2.798808032
  H   -3.963446694  -2.133467188   1.379808032
  H   -2.630446694  -0.441467188   0.144808032
  C    1.545502394   2.129330289  -1.567248691
  O    0.935548112   1.288960107  -0.948711926
  C    2.584638635   3.008979167  -0.902280477
  C    1.311208401   2.358327183  -3.045299010
  H    2.290650004   4.058274997  -0.980804017
  H    1.026384361   3.396223420  -3.228960839
  H    3.546499005   2.911892044  -1.409633134
  H    2.690326713   2.737691750   0.143267785
  H    0.530168502   1.694709713  -3.407269354
  H    2.231758336   2.179380010  -3.604007098
