9
charge=0 charge_a=0 charge_b=0 selection_a=1-6 selection_b=7-9 scaling=1.00 benchmark_Eint=2.280 benchmark_unit=kcal/mol group=HCNO contact=O-N
  C    0.278322841  -0.303120487  -2.583741411
  H   -0.093677159  -1.181120487  -3.119741411
  H    1.339322841  -1.257120487  -1.244741411
  H    1.114322841   0.125879513  -3.142741411
  H   -0.518677159   0.434879513  -2.537741411
  O    0.634322841  -0.607120487  -1.240741411
  C   -1.154414474   1.104908467   2.258045510
  H   -1.598611809   1.530085851   3.128521769
  N   -0.676562065   0.647548320   1.323361728
