6
charge=0 charge_a=0 charge_b=0 selection_a=1-3 selection_b=4-6 scaling=1.05 benchmark_Eint=1.870 benchmark_unit=kcal/mol group=HCNO contact=O-N
  H   -1.004584200  -0.486313027   1.938960870
  H   -0.430584200   0.925686973   1.990960870
  O   -0.518584200   0.158686973   1.419960870
  C    1.026169218  -0.314008192  -2.809804339
  H    1.389427323  -0.426123961  -3.805439615
  N    0.635505831  -0.194465039  -1.740109732
