17
charge=0 charge_a=0 charge_b=0 selection_a=1-7 selection_b=8-17 scaling=1.25 benchmark_Eint=-2.601 benchmark_unit=kcal/mol group=HCNO contact=O-N
  C   -1.498059411  -0.000000000  -1.600000000
  H   -1.808519061   0.012758830  -2.641457161
  H   -1.835724257   0.896679702  -1.094215496
  H   -1.834939241  -0.909253068  -1.116129316
  N    0.000000000   0.000000000  -1.600000000
  O    0.555879823  -1.083121416  -1.626657474
  O    0.555981287   1.083622540  -1.600000000
  C   -0.000000000  -0.000000000   2.585761933
  O    0.000000000   0.000000000   1.377104000
  C    0.833351795   0.983935524   3.381478383
  C   -0.831343179  -0.982352570   3.383143866
  H    1.553293599   0.446184423   4.002867595
  H   -0.194974658  -1.561731276   4.055037028
  H    0.199282981   1.559174528   4.059021613
  H    1.360682757   1.655119132   2.711125774
  H   -1.362571138  -1.653097057   2.712821042
  H   -1.547782441  -0.447233869   4.009204374
