10
charge=0 charge_a=0 charge_b=0 selection_a=1-3 selection_b=4-10 scaling=1.10 benchmark_Eint=-1.517 benchmark_unit=kcal/mol group=HCNO contact=O-N
  H   -1.004584200  -0.486313027   1.938960870
  H   -0.430584200   0.925686973   1.990960870
  O   -0.518584200   0.158686973   1.419960870
  C   -0.158675419  -1.510959393  -1.159959762
  H    0.068825055  -1.902500256  -2.147947761
  H   -1.230692989  -1.445185715  -1.017403970
  H    0.332694714  -2.102522683  -0.396436176
  N    0.405049742  -0.123945383  -1.109086595
  O    1.556316182  -0.005360289  -0.730420304
  O   -0.319156182   0.784311578  -1.475075763
