17
charge=0 charge_a=0 charge_b=0 selection_a=1-7 selection_b=8-17 scaling=1.10 benchmark_Eint=1.740 benchmark_unit=kcal/mol group=HCNO contact=O-N
  N    0.907607368  -0.903143900  -0.959468583
  C    2.253607368  -0.330143900  -0.922468583
  H    0.540607368  -0.905143900  -1.901468583
  H    2.615607368  -0.329143900   0.105531417
  H    2.209607368   0.708856100  -1.249468583
  H    2.996607368  -0.847143900  -1.541468583
  H    0.914607368  -1.864143900  -0.645468583
  C   -1.871723467   1.862518630   1.978674839
  O   -1.186106689   1.180273605   1.253881517
  C   -2.755321653   1.250011327   3.046316187
  C   -1.893041137   3.372180741   1.867176548
  H   -3.800924764   1.502822540   2.855482160
  H   -2.910804567   3.726292972   1.691543042
  H   -2.505804218   1.658725511   4.027489854
  H   -2.637376883   0.171149916   3.055540532
  H   -1.247299218   3.696267119   1.055130124
  H   -1.558435401   3.823044245   2.803312276
