20
charge=0 charge_a=0 charge_b=0 selection_a=1-11 selection_b=12-20 scaling=1.10 benchmark_Eint=1.184 benchmark_unit=kcal/mol group=HCNO contact=O-N
  C   -0.175446694  -2.007467188   1.577808032
  C   -0.829446694  -2.993467188   2.306808032
  C   -2.215446694  -3.053467188   2.245808032
  C   -2.885446694  -2.126467188   1.458808032
  C   -2.138446694  -1.179467188   0.767808032
  N   -0.807446694  -1.112467188   0.818808032
  H    0.906553306  -1.933467188   1.603808032
  H   -0.263446694  -3.693467188   2.905808032
  H   -2.760446694  -3.806467188   2.798808032
  H   -3.963446694  -2.133467188   1.379808032
  H   -2.630446694  -0.441467188   0.144808032
  C    0.383310859   1.766022222  -1.935567613
  C    1.327049909   2.640380300  -2.358857771
  C    2.419829920   2.523845621  -1.439502282
  C    2.050711062   1.587778547  -0.533083118
  H    2.528873009   1.166615144   0.332281857
  H    3.348658144   3.065670085  -1.457485073
  H   -0.593137740   1.499201176  -2.294588032
  H    1.259784414   3.287817510  -3.214774480
  O    0.808011906   1.113245915  -0.819381197
