13
charge=0 charge_a=0 charge_b=0 selection_a=1-7 selection_b=8-13 scaling=1.10 benchmark_Eint=-2.151 benchmark_unit=kcal/mol group=HCNO contact=O-N
  C   -1.498059411  -0.000000000  -1.600000000
  H   -1.808519061   0.012758830  -2.641457161
  H   -1.835724257   0.896679702  -1.094215496
  H   -1.834939241  -0.909253068  -1.116129316
  N    0.000000000   0.000000000  -1.600000000
  O    0.555879823  -1.083121416  -1.626657474
  O    0.555981287   1.083622540  -1.600000000
  C    1.157616902  -0.000295922   1.874527155
  H    1.211258126  -0.890818257   2.507501554
  H   -0.780501655   0.000199519   1.605353951
  H    1.209524453   0.889080131   2.508351928
  H    2.017758025   0.001270818   1.209603255
  O    0.000000000   0.000000000   1.048256000
