20
charge=0 charge_a=0 charge_b=0 selection_a=1-11 selection_b=12-20 scaling=1.25 benchmark_Eint=0.601 benchmark_unit=kcal/mol group=HCNO contact=O-N
  C   -0.175446694  -2.007467188   1.577808032
  C   -0.829446694  -2.993467188   2.306808032
  C   -2.215446694  -3.053467188   2.245808032
  C   -2.885446694  -2.126467188   1.458808032
  C   -2.138446694  -1.179467188   0.767808032
  N   -0.807446694  -1.112467188   0.818808032
  H    0.906553306  -1.933467188   1.603808032
  H   -0.263446694  -3.693467188   2.905808032
  H   -2.760446694  -3.806467188   2.798808032
  H   -3.963446694  -2.133467188   1.379808032
  H   -2.630446694  -0.441467188   0.144808032
  C    0.603743807   2.069725764  -2.159102205
  C    1.547482856   2.944083842  -2.582392364
  C    2.640262867   2.827549164  -1.663036875
  C    2.271144009   1.891482090  -0.756617710
  H    2.749305956   1.470318687   0.108747265
  H    3.569091092   3.369373627  -1.681019666
  H   -0.372704793   1.802904718  -2.518122624
  H    1.480217361   3.591521052  -3.438309073
  O    1.028444854   1.416949457  -1.042915790
