13
charge=0 charge_a=0 charge_b=0 selection_a=1-7 selection_b=8-13 scaling=1.25 benchmark_Eint=1.170 benchmark_unit=kcal/mol group=HCNO contact=O-N
  N    0.907607368  -0.903143900  -0.959468583
  C    2.253607368  -0.330143900  -0.922468583
  H    0.540607368  -0.905143900  -1.901468583
  H    2.615607368  -0.329143900   0.105531417
  H    2.209607368   0.708856100  -1.249468583
  H    2.996607368  -0.847143900  -1.541468583
  H    0.914607368  -1.864143900  -0.645468583
  C   -2.804846278   1.212460513   1.760123901
  H   -3.411472155   2.064497954   1.439809614
  H   -1.119643084   2.178473126   1.996064205
  H   -3.000535690   1.015264568   2.817591354
  H   -3.107386256   0.339930382   1.186425607
  O   -1.420786726   1.413799524   1.501971309
