16
charge=0 charge_a=0 charge_b=0 selection_a=1-6 selection_b=7-16 scaling=1.00 benchmark_Eint=2.203 benchmark_unit=kcal/mol group=HCNO contact=O-O
  C    0.278322841  -0.303120487  -2.583741411
  H   -0.093677159  -1.181120487  -3.119741411
  H    1.339322841  -1.257120487  -1.244741411
  H    1.114322841   0.125879513  -3.142741411
  H   -0.518677159   0.434879513  -2.537741411
  O    0.634322841  -0.607120487  -1.240741411
  C   -1.157239366   1.107612216   2.263571026
  O   -0.652845068   0.624848405   1.276971060
  C   -0.317937591   1.692350143   3.381346981
  C   -2.659080385   1.159255407   2.447344080
  H   -0.505880442   1.150885123   4.311459941
  H   -2.946906720   0.653134280   3.370968682
  H   -0.594668413   2.733162052   3.560619466
  H    0.735950446   1.629198095   3.129812046
  H   -3.155542443   0.689370318   1.602259807
  H   -2.991384089   2.195124852   2.537553514
