13
charge=0 charge_a=0 charge_b=0 selection_a=1-3 selection_b=4-13 scaling=1.05 benchmark_Eint=1.902 benchmark_unit=kcal/mol group=HCNO contact=O-O
  H   -1.004584200  -0.486313027   1.938960870
  H   -0.430584200   0.925686973   1.990960870
  O   -0.518584200   0.158686973   1.419960870
  C    1.034248612  -0.316480489  -2.831926924
  O    0.621886172  -0.190297418  -1.702817075
  C    0.144497499  -0.813557462  -3.953098829
  C    2.465403520   0.012993684  -3.199633870
  H    0.548604410  -1.740330566  -4.367111170
  H    2.954060850  -0.856805759  -3.643196652
  H    0.118932221  -0.088271428  -4.768767012
  H   -0.860845125  -0.987902409  -3.583196073
  H    3.014431813   0.331071587  -2.317121331
  H    2.487842361   0.805334810  -3.950154382
