12
charge=0 charge_a=0 charge_b=0 selection_a=1-3 selection_b=4-12 scaling=1.00 benchmark_Eint=2.193 benchmark_unit=kcal/mol group=HCNO contact=O-O
  H   -1.004584200  -0.486313027   1.938960870
  H   -0.430584200   0.925686973   1.990960870
  O   -0.518584200   0.158686973   1.419960870
  C    1.695803967  -0.366580108  -1.490054623
  C    1.790907164  -0.449147891  -2.838556734
  C    0.466457404  -0.243857173  -3.345164622
  C   -0.324909255  -0.052876759  -2.262884024
  H   -1.375625355   0.135219141  -2.138426763
  H    0.154454196  -0.240469773  -4.374368938
  H    2.408466355  -0.450877018  -0.690963044
  H    2.685984770  -0.632439662  -3.405595714
  O    0.408748066  -0.125077072  -1.119213158
