16
charge=0 charge_a=0 charge_b=0 selection_a=1-6 selection_b=7-16 scaling=1.10 benchmark_Eint=1.712 benchmark_unit=kcal/mol group=HCNO contact=O-O
  C    0.278322841  -0.303120487  -2.583741411
  H   -0.093677159  -1.181120487  -3.119741411
  H    1.339322841  -1.257120487  -1.244741411
  H    1.114322841   0.125879513  -3.142741411
  H   -0.518677159   0.434879513  -2.537741411
  O    0.634322841  -0.607120487  -1.240741411
  C   -1.285880039   1.230736251   2.515193384
  O   -0.781485740   0.747972440   1.528593418
  C   -0.446578263   1.815474178   3.632969340
  C   -2.787721057   1.282379442   2.698966438
  H   -0.634521114   1.274009158   4.563082299
  H   -3.075547392   0.776258315   3.622591040
  H   -0.723309086   2.856286086   3.812241824
  H    0.607309774   1.752322130   3.381434404
  H   -3.284183115   0.812494353   1.853882165
  H   -3.120024761   2.318248886   2.789175873
