20
charge=0 charge_a=0 charge_b=0 selection_a=1-10 selection_b=11-20 scaling=1.15 benchmark_Eint=1.694 benchmark_unit=kcal/mol group=HCNO contact=O-O
  C    1.618694325   0.013545559  -2.196638185
  O    0.901694325   0.007545559  -1.223638185
  C    1.080694325   0.319545559  -3.579638185
  C    3.099694325  -0.284454441  -2.097638185
  H    1.239694325  -0.536454441  -4.239638185
  H    3.362694325  -1.124454441  -2.743638185
  H    1.618694325   1.161545559  -4.019638185
  H    0.020694325   0.546545559  -3.526638185
  H    3.366694325  -0.515454441  -1.069638185
  H    3.679694325   0.573545559  -2.442638185
  C   -2.033654053  -0.017018025   2.759756478
  O   -1.316654053  -0.011018025   1.786756478
  C   -2.435970418   1.265199224   3.459634659
  C   -2.575850544  -1.304680026   3.342779237
  H   -2.081190008   1.253411595   4.492886280
  H   -2.285282532  -1.399669885   4.390935789
  H   -3.523582895   1.351508089   3.500351727
  H   -2.017394969   2.121580920   2.940652014
  H   -2.201845169  -2.156353722   2.780457357
  H   -3.667115892  -1.299140397   3.316354759
