13
charge=0 charge_a=0 charge_b=0 selection_a=1-3 selection_b=4-13 scaling=1.25 benchmark_Eint=1.310 benchmark_unit=kcal/mol group=HCNO contact=O-O
  H   -1.004584200  -0.486313027   1.938960870
  H   -0.430584200   0.925686973   1.990960870
  O   -0.518584200   0.158686973   1.419960870
  C    1.251535392  -0.382970331  -3.426890528
  O    0.839172952  -0.256787260  -2.297780679
  C    0.361784278  -0.880047304  -4.548062433
  C    2.682690300  -0.053496158  -3.794597474
  H    0.765891189  -1.806820407  -4.962074774
  H    3.171347630  -0.923295601  -4.238160257
  H    0.336219000  -0.154761270  -5.363730617
  H   -0.643558345  -1.054392251  -4.178159678
  H    3.231718593   0.264581745  -2.912084936
  H    2.705129140   0.738844968  -4.545117986
