12
charge=0 charge_a=0 charge_b=0 selection_a=1-4 selection_b=5-12 scaling=1.25 benchmark_Eint=-0.033 benchmark_unit=kcal/mol group=PS contact=P-H
  B    1.692179578   0.552343483   0.883749572
  H    0.681179578   0.222343483   0.355749572
  H    2.735179578   0.176343483   0.456749572
  H    1.661179578   1.257343483   1.838749572
  C   -3.675239047   0.299393386  -1.330284387
  C   -2.477430980  -2.147608068  -1.820068745
  H   -4.457491472  -0.251590362  -1.848323047
  H   -1.725482363  -2.926432447  -1.830210948
  H   -3.421539522  -2.397219314  -2.289176714
  H   -3.445247925   1.207318146  -1.889771397
  H   -4.043997645   0.612074797  -0.351643272
  P   -2.124573560  -0.693480986  -1.109569575
