13
charge=0 charge_a=0 charge_b=0 selection_a=1-5 selection_b=6-13 scaling=1.15 benchmark_Eint=0.151 benchmark_unit=kcal/mol group=PS contact=P-H
  C   -1.485547661  -1.164488879   0.027767246
  H   -0.629547661  -0.493488879   0.011767246
  H   -1.452547661  -1.772488879   0.929767246
  H   -2.403547661  -0.582488879   0.016767246
  H   -1.455547661  -1.811488879  -0.846232754
  C    1.650062254   2.984329584  -0.648530812
  C    3.121541703   0.936590883   0.493381375
  H    2.639977601   3.425275873  -0.551062992
  H    3.357282337  -0.033906390   0.911302895
  H    3.940653130   1.644506230   0.453115602
  H    0.930909346   3.591702287  -0.097017899
  H    1.348767775   3.006322690  -1.697448798
  P    1.578901600   1.237667025  -0.029512179
