12
charge=0 charge_a=0 charge_b=0 selection_a=1-4 selection_b=5-12 scaling=1.00 benchmark_Eint=3.061 benchmark_unit=kcal/mol group=PS contact=P-H
  C    0.052610641  -1.106577151  -1.495895895
  C    0.085610641  -1.817577151  -2.456895895
  H    0.022610641  -0.475577151  -0.642895895
  H    0.114610641  -2.448577151  -3.309895895
  C    1.384313751   1.628412889   2.036220771
  C   -1.370303380   1.360057910   1.986030444
  H    1.069030443   2.227362070   2.888114141
  H   -2.353957020   1.040332456   1.666189623
  H   -1.343733545   2.006587620   2.854939172
  H    1.942666229   2.258092854   1.341962424
  H    2.066234319   0.847883136   2.378636663
  P   -0.040210623   0.845763434   1.143322042
