13
charge=0 charge_a=0 charge_b=0 selection_a=1-5 selection_b=6-13 scaling=1.00 benchmark_Eint=2.813 benchmark_unit=kcal/mol group=PS contact=P-H
  C   -1.485547661  -1.164488879   0.027767246
  H   -0.629547661  -0.493488879   0.011767246
  H   -1.452547661  -1.772488879   0.929767246
  H   -2.403547661  -0.582488879   0.016767246
  H   -1.455547661  -1.811488879  -0.846232754
  C    1.362091415   2.758595433  -0.643148180
  C    2.833570864   0.710856732   0.498764008
  H    2.352006762   3.199541722  -0.545680360
  H    3.069311498  -0.259640540   0.916685528
  H    3.652682291   1.418772080   0.458498235
  H    0.642938507   3.365968137  -0.091635267
  H    1.060796936   2.780588539  -1.692066165
  P    1.290930761   1.011932875  -0.024129547
