10
charge=0 charge_a=0 charge_b=0 selection_a=1-2 selection_b=3-10 scaling=1.05 benchmark_Eint=0.578 benchmark_unit=kcal/mol group=PS contact=P-H
  F    0.655496934  -0.274524357   1.568710612
  H    0.304496934  -0.127524357   0.728710612
  C   -2.147354997  -0.105639392  -1.546323439
  C    0.372674624   0.741565900  -2.317130096
  H   -2.288959551   0.146067818  -2.595350432
  H    1.425013946   0.987785614  -2.253452767
  H   -0.090115079   0.895308300  -3.284548292
  H   -2.826638146   0.494004815  -0.938663806
  H   -2.416511781  -1.151640889  -1.388442175
  P   -0.405919153   0.170000329  -0.971430453
