17
charge=0 charge_a=0 charge_b=0 selection_a=1-13 selection_b=14-17 scaling=1.15 benchmark_Eint=0.451 benchmark_unit=kcal/mol group=PS contact=P-H
  C    2.680204605   0.705092983  -1.879184675
  C    2.396204605   2.294092983   0.447815325
  C    3.257204605  -0.394907017   0.664815325
  H    2.095204605   1.395092983  -2.487184675
  H    2.158204605   2.361092983   1.508815325
  H    3.229204605  -1.417907017   0.289815325
  H    2.630204605  -0.274907017  -2.353184675
  H    3.720204605   1.039092983  -1.869184675
  H    1.800204605   3.043092983  -0.073184675
  H    3.454204605   2.525092983   0.307815325
  H    3.055204605  -0.428907017   1.735815325
  H    4.259204605   0.010092983   0.508815325
  P    1.949204605   0.609092983  -0.179184675
  B   -2.118891989  -0.662117379   0.194783540
  H   -0.989920198  -0.309333071   0.091000467
  H   -2.686261034  -0.539680010   1.231439442
  H   -2.680808602  -1.137893572  -0.736826751
