8
charge=0 charge_a=0 charge_b=0 selection_a=1-4 selection_b=5-8 scaling=1.05 benchmark_Eint=1.182 benchmark_unit=kcal/mol group=PS contact=P-H
  H    2.629997318   0.717791816  -1.389164127
  H    2.351997318   1.939791816   0.252835873
  H    3.016997318   0.000791816   0.508835873
  P    1.939997318   0.644791816  -0.152164127
  C   -1.303330063  -0.433184392   0.102226987
  C   -2.435243182  -0.808633192   0.191344260
  H   -0.298840026  -0.099324675   0.023439585
  H   -3.439979306  -1.141583513   0.270466984
