14
charge=0 charge_a=0 charge_b=0 selection_a=1-6 selection_b=7-14 scaling=1.05 benchmark_Eint=1.503 benchmark_unit=kcal/mol group=PS contact=P-C
  C    0.000000000   0.000000000  -1.700000000
  C   -1.324750165   0.000000000  -1.700000000
  H    0.569437181   0.920034400  -1.700000000
  H    0.568432464  -0.920558601  -1.701181686
  H   -1.893182629   0.920558601  -1.698818314
  H   -1.894159417  -0.919202805  -1.700554680
  C    1.460702630   0.000648494   2.914677146
  C   -1.304719826  -0.000579244   2.792668405
  H    1.173930502  -0.005323763   3.964244713
  H   -2.302861685  -0.000754429   2.373371615
  H   -1.247475762  -0.001379739   3.874533220
  H    2.073782483   0.880780376   2.715303214
  H    2.080000801  -0.873796246   2.706573389
  P   -0.000000000   0.000000000   1.772125000
