9
charge=0 charge_a=0 charge_b=0 selection_a=1-4 selection_b=5-9 scaling=1.15 benchmark_Eint=0.008 benchmark_unit=kcal/mol group=PS contact=P-C
  H    2.629997318   0.717791816  -1.389164127
  H    2.351997318   1.939791816   0.252835873
  H    3.016997318   0.000791816   0.508835873
  P    1.939997318   0.644791816  -0.152164127
  C   -1.558936836  -0.517448359   0.122546789
  H   -2.588452065  -0.859183242   0.203470595
  H   -1.117786011  -0.909591824  -0.791765222
  H   -1.537755671   0.569062825   0.097771688
  H   -0.990690343  -0.872050953   0.979715339
