20
charge=0 charge_a=0 charge_b=0 selection_a=1-12 selection_b=13-20 scaling=1.25 benchmark_Eint=-0.616 benchmark_unit=kcal/mol group=PS contact=P-C
  C    0.000000000   0.000000000  -1.700000000
  C   -1.391831527   0.000000000  -1.700000000
  C   -2.086751840   1.204674130  -1.700000000
  C   -1.390926964   2.408576334  -1.699526714
  C   -0.000398755   2.408810669  -1.700023148
  C    0.695408878   1.203930356  -1.700435643
  H    0.540576201  -0.937117009  -1.700286895
  H   -1.931767565  -0.937040559  -1.699743666
  H   -3.168350417   1.203978654  -1.698983485
  H   -1.931503165   3.345693343  -1.699239818
  H    0.540840601   3.345616893  -1.699783048
  H    1.777025417   1.202641463  -1.700421645
  C    0.731512451  -1.264334658   3.357927146
  C   -0.653397056   1.129321232   3.235918405
  H    0.582837946  -1.019039300   4.407494713
  H   -1.153029437   1.993413060   2.816621615
  H   -0.625444582   1.079359419   4.317783220
  H    1.800311912  -1.354704719   3.158553214
  H    0.284331804  -2.238097101   3.149823389
  P   -0.000000000   0.000000000   2.215375000
