8
charge=0 charge_a=0 charge_b=0 selection_a=1-4 selection_b=5-8 scaling=1.25 benchmark_Eint=0.062 benchmark_unit=kcal/mol group=PS contact=P-C
  H    2.629997318   0.717791816  -1.389164127
  H    2.351997318   1.939791816   0.252835873
  H    3.016997318   0.000791816   0.508835873
  P    1.939997318   0.644791816  -0.152164127
  C   -2.022210619  -0.672116835   0.158612546
  C   -2.334022900   0.378826443   0.636548030
  H   -1.745586804  -1.604662933  -0.266248654
  H   -2.610931219   1.311671033   1.060498209
