13
charge=0 charge_a=0 charge_b=0 selection_a=1-5 selection_b=6-13 scaling=1.05 benchmark_Eint=1.122 benchmark_unit=kcal/mol group=PS contact=P-C
  C   -1.700000000   0.000000000   0.000000000
  H   -2.787765140   0.000000000  -0.000000000
  H   -1.337649723   1.026186765   0.000000000
  H   -1.336769018  -0.512274047   0.887247178
  H   -1.337354622  -0.511979565  -0.888678938
  C    2.804680814   1.173436297  -0.867900185
  C    2.681507375  -1.049884994   0.776520606
  H    3.854127510   0.939042357  -0.701806492
  H    2.261790235  -1.852076326   1.370173358
  H    3.763396203  -1.004719111   0.742087958
  H    2.605565033   2.189932072  -0.525353481
  H    2.596837982   1.150952174  -1.939248318
  P    1.661513568  -0.000562340   0.000416489
