13
charge=0 charge_a=0 charge_b=0 selection_a=1-5 selection_b=6-13 scaling=1.25 benchmark_Eint=-0.339 benchmark_unit=kcal/mol group=PS contact=P-C
  C   -1.700000000   0.000000000   0.000000000
  H   -2.787765140   0.000000000  -0.000000000
  H   -1.337649723   1.026186765   0.000000000
  H   -1.336769018  -0.512274047   0.887247178
  H   -1.337354622  -0.511979565  -0.888678938
  C    3.393148797   1.173237129  -0.867752675
  C    3.269975357  -1.050084162   0.776668117
  H    4.442595492   0.938843190  -0.701658982
  H    2.850258218  -1.852275494   1.370320868
  H    4.351864185  -1.004918279   0.742235468
  H    3.194033016   2.189732905  -0.525205971
  H    3.185305965   1.150753007  -1.939100808
  P    2.249981550  -0.000761508   0.000563999
