14
charge=0 charge_a=0 charge_b=0 selection_a=1-6 selection_b=7-14 scaling=1.25 benchmark_Eint=0.028 benchmark_unit=kcal/mol group=PS contact=P-C
  C    0.000000000   0.000000000  -1.700000000
  C   -1.324750165   0.000000000  -1.700000000
  H    0.569437181   0.920034400  -1.700000000
  H    0.568432464  -0.920558601  -1.701181686
  H   -1.893182629   0.920558601  -1.698818314
  H   -1.894159417  -0.919202805  -1.700554680
  C    1.460702630   0.000648494   3.576177146
  C   -1.304719826  -0.000579244   3.454168405
  H    1.173930502  -0.005323763   4.625744713
  H   -2.302861685  -0.000754429   3.034871615
  H   -1.247475762  -0.001379739   4.536033220
  H    2.073782483   0.880780376   3.376803214
  H    2.080000801  -0.873796246   3.368073389
  P   -0.000000000   0.000000000   2.433625001
