16
charge=0 charge_a=0 charge_b=0 selection_a=1-4 selection_b=5-16 scaling=1.15 benchmark_Eint=-0.207 benchmark_unit=kcal/mol group=PS contact=P-C
  H    2.629997318   0.717791816  -1.389164127
  H    2.351997318   1.939791816   0.252835873
  H    3.016997318   0.000791816   0.508835873
  P    1.939997318   0.644791816  -0.152164127
  C   -1.500895486  -0.498848693   0.117723076
  C   -1.452507631  -0.318932459   1.497028613
  C   -1.815406312   0.903777296   2.051500797
  C   -2.225959173   1.946134185   1.227794865
  C   -2.274846803   1.766450650  -0.150208339
  C   -1.912303085   0.543302557  -0.705506272
  H   -1.218867700  -1.450085494  -0.313577140
  H   -1.132425676  -1.130253209   2.136467571
  H   -1.776618468   1.043256714   3.123367391
  H   -2.507986958   2.897370986   1.659095081
  H   -2.594428983   2.577538702  -0.790949630
  H   -1.949478766   0.402278838  -1.777246109
