25
charge=0 charge_a=0 charge_b=0 selection_a=1-13 selection_b=14-25 scaling=1.10 benchmark_Eint=0.407 benchmark_unit=kcal/mol group=PS contact=P-C
  C    2.680204605   0.705092983  -1.879184675
  C    2.396204605   2.294092983   0.447815325
  C    3.257204605  -0.394907017   0.664815325
  H    2.095204605   1.395092983  -2.487184675
  H    2.158204605   2.361092983   1.508815325
  H    3.229204605  -1.417907017   0.289815325
  H    2.630204605  -0.274907017  -2.353184675
  H    3.720204605   1.039092983  -1.869184675
  H    1.800204605   3.043092983  -0.073184675
  H    3.454204605   2.525092983   0.307815325
  H    3.055204605  -0.428907017   1.735815325
  H    4.259204605   0.010092983   0.508815325
  P    1.949204605   0.609092983  -0.179184675
  C   -1.351844706  -0.422428267   0.124271128
  C   -0.922630723  -1.722920126   0.372648425
  C   -0.673817810  -2.135356095   1.677310337
  C   -0.853455974  -1.248326417   2.732990913
  C   -1.282733350   0.050846234   2.485119252
  C   -1.532218015   0.463948189   1.180132977
  H   -1.545668376  -0.101681925  -0.890600869
  H   -0.782726562  -2.411600409  -0.449374868
  H   -0.339327073  -3.145808932   1.869555001
  H   -0.659632303  -1.569072758   3.747862909
  H   -1.422574118   0.740845725   3.306636909
  H   -1.865791298   1.474333799   0.985850237
