12
charge=0 charge_a=0 charge_b=0 selection_a=1-4 selection_b=5-12 scaling=1.05 benchmark_Eint=1.496 benchmark_unit=kcal/mol group=PS contact=P-C
  C    0.000000000   0.000000000  -1.700000000
  C   -1.195880847   0.000000000  -1.700000000
  H    1.061446885   0.000714097  -1.700000000
  H   -2.257300137   0.000279700  -1.700107731
  C    1.460702733   0.000347201   2.928927146
  C   -1.304719917  -0.000310125   2.806918405
  H    1.173929379  -0.005565904   3.978494713
  H   -2.302861791  -0.000279428   2.387621615
  H   -1.247476020  -0.001122427   3.888783220
  H    2.073964113   0.880352607   2.729553214
  H    2.079820522  -0.874225260   2.720823389
  P   -0.000000000   0.000000000   1.786375000
