10
charge=0 charge_a=0 charge_b=0 selection_a=1-4 selection_b=5-10 scaling=1.15 benchmark_Eint=0.385 benchmark_unit=kcal/mol group=PS contact=P-C
  H    2.629997318   0.717791816  -1.389164127
  H    2.351997318   1.939791816   0.252835873
  H    3.016997318   0.000791816   0.508835873
  P    1.939997318   0.644791816  -0.152164127
  C   -1.721274449  -0.572095470   0.135008549
  C   -2.066740100   0.592196540   0.664197172
  H   -1.748393924  -0.742570653  -0.933132240
  H   -1.398441863  -1.402227064   0.749179258
  H   -2.389572686   1.422328134   0.050026464
  H   -2.040296993   0.762770981   1.731608116
