10
charge=0 charge_a=0 charge_b=0 selection_a=1-4 selection_b=5-10 scaling=1.00 benchmark_Eint=2.526 benchmark_unit=kcal/mol group=PS contact=P-C
  H    2.629997318   0.717791816  -1.389164127
  H    2.351997318   1.939791816   0.252835873
  H    3.016997318   0.000791816   0.508835873
  P    1.939997318   0.644791816  -0.152164127
  C   -1.243964134  -0.413453094   0.097570607
  C   -1.589429784   0.750838917   0.626759230
  H   -1.271083608  -0.583928277  -0.970570182
  H   -0.921131548  -1.243584687   0.711741316
  H   -1.912262370   1.580970511   0.012588521
  H   -1.562986677   0.921413358   1.694170173
