10
charge=0 charge_a=0 charge_b=0 selection_a=1-4 selection_b=5-10 scaling=1.10 benchmark_Eint=0.773 benchmark_unit=kcal/mol group=PS contact=P-C
  H    2.629997318   0.717791816  -1.389164127
  H    2.351997318   1.939791816   0.252835873
  H    3.016997318   0.000791816   0.508835873
  P    1.939997318   0.644791816  -0.152164127
  C   -1.562289303  -0.519253995   0.122538514
  C   -1.907754954   0.645038016   0.651727136
  H   -1.589408778  -0.689729178  -0.945602276
  H   -1.239456717  -1.349385588   0.736709222
  H   -2.230587540   1.475169610   0.037556428
  H   -1.881311847   0.815612457   1.719138080
