20
charge=0 charge_a=0 charge_b=0 selection_a=1-13 selection_b=14-20 scaling=1.10 benchmark_Eint=-1.836 benchmark_unit=kcal/mol group=PS contact=P-N
  C    2.680204605   0.705092983  -1.879184675
  C    2.396204605   2.294092983   0.447815325
  C    3.257204605  -0.394907017   0.664815325
  H    2.095204605   1.395092983  -2.487184675
  H    2.158204605   2.361092983   1.508815325
  H    3.229204605  -1.417907017   0.289815325
  H    2.630204605  -0.274907017  -2.353184675
  H    3.720204605   1.039092983  -1.869184675
  H    1.800204605   3.043092983  -0.073184675
  H    3.454204605   2.525092983   0.307815325
  H    3.055204605  -0.428907017   1.735815325
  H    4.259204605   0.010092983   0.508815325
  P    1.949204605   0.609092983  -0.179184675
  C   -0.802902938  -0.780021152   1.503433460
  H   -1.740774405  -1.170162278   1.889915043
  H   -0.488078428   0.083531181   2.077047351
  H   -0.052745719  -1.561441845   1.471718369
  N   -1.071202030  -0.334732248   0.098472468
  O   -0.922430571  -1.160240392  -0.784289311
  O   -1.444578715   0.813804029  -0.059030776
