7
charge=0 charge_a=0 charge_b=0 selection_a=1-4 selection_b=5-7 scaling=1.05 benchmark_Eint=1.556 benchmark_unit=kcal/mol group=PS contact=P-N
  H    2.629997318   0.717791816  -1.389164127
  H    2.351997318   1.939791816   0.252835873
  H    3.016997318   0.000791816   0.508835873
  P    1.939997318   0.644791816  -0.152164127
  C   -2.511749321  -0.834823529   0.197009624
  H   -3.520548011  -1.169226065   0.276483818
  N   -1.428136123  -0.474665854   0.112016179
