19
charge=0 charge_a=0 charge_b=0 selection_a=1-11 selection_b=12-19 scaling=1.25 benchmark_Eint=0.574 benchmark_unit=kcal/mol group=PS contact=P-N
  C   -0.175446694  -2.007467188   1.577808032
  C   -0.829446694  -2.993467188   2.306808032
  C   -2.215446694  -3.053467188   2.245808032
  C   -2.885446694  -2.126467188   1.458808032
  C   -2.138446694  -1.179467188   0.767808032
  N   -0.807446694  -1.112467188   0.818808032
  H    0.906553306  -1.933467188   1.603808032
  H   -0.263446694  -3.693467188   2.905808032
  H   -2.760446694  -3.806467188   2.798808032
  H   -3.963446694  -2.133467188   1.379808032
  H   -2.630446694  -0.441467188   0.144808032
  C    1.516518534   3.520732218  -0.837535125
  C    2.063358902   1.564323913  -2.717929008
  H    2.104400213   4.057819565  -1.579018984
  H    2.071580987   0.597205181  -3.204458305
  H    2.596043003   2.355476951  -3.231770929
  H    2.015458395   3.584408296   0.130583345
  H    0.545101907   4.006544195  -0.728781001
  P    1.261289771   1.737753706  -1.279036998
