20
charge=0 charge_a=0 charge_b=0 selection_a=1-13 selection_b=14-20 scaling=1.25 benchmark_Eint=-2.601 benchmark_unit=kcal/mol group=PS contact=P-N
  C    2.680204605   0.705092983  -1.879184675
  C    2.396204605   2.294092983   0.447815325
  C    3.257204605  -0.394907017   0.664815325
  H    2.095204605   1.395092983  -2.487184675
  H    2.158204605   2.361092983   1.508815325
  H    3.229204605  -1.417907017   0.289815325
  H    2.630204605  -0.274907017  -2.353184675
  H    3.720204605   1.039092983  -1.869184675
  H    1.800204605   3.043092983  -0.073184675
  H    3.454204605   2.525092983   0.307815325
  H    3.055204605  -0.428907017   1.735815325
  H    4.259204605   0.010092983   0.508815325
  P    1.949204605   0.609092983  -0.179184675
  C   -1.214855446  -0.908749240   1.541303048
  H   -2.152726912  -1.298890366   1.927784632
  H   -0.900030935  -0.045196907   2.114916939
  H   -0.464698227  -1.690169933   1.509587958
  N   -1.483154538  -0.463460336   0.136342056
  O   -1.334383078  -1.288968480  -0.746419722
  O   -1.856531223   0.685075941  -0.021161188
