11
charge=0 charge_a=0 charge_b=0 selection_a=1-3 selection_b=4-11 scaling=1.00 benchmark_Eint=2.369 benchmark_unit=kcal/mol group=PS contact=P-N
  C   -2.735331436  -0.059932766   0.222949889
  H   -3.797331436  -0.083932766   0.308949889
  N   -1.594331436  -0.034932766   0.129949889
  C    2.969865900   1.223909007   0.648416551
  C    2.759580299  -0.974625590  -1.020317877
  H    4.006061445   1.022662669   0.384475831
  H    2.309771493  -1.776512645  -1.591935047
  H    3.839384278  -0.905049456  -1.074090822
  H    2.859281168   1.172194269   1.732550123
  H    2.714348432   2.242170731   0.349510401
  P    1.784505283   0.039099590  -0.145450474
