11
charge=0 charge_a=0 charge_b=0 selection_a=1-4 selection_b=5-11 scaling=1.05 benchmark_Eint=1.779 benchmark_unit=kcal/mol group=PS contact=P-N
  H    2.629997318   0.717791816  -1.389164127
  H    2.351997318   1.939791816   0.252835873
  H    3.016997318   0.000791816   0.508835873
  P    1.939997318   0.644791816  -0.152164127
  N   -1.455769256  -0.483850206   0.114183590
  C   -2.217074731   0.617468904   0.704881644
  H   -1.513113269  -1.313239207   0.689407501
  H   -2.124779347   1.498948727   0.070607347
  H   -1.786540767   0.871265760   1.673702402
  H   -3.285247741   0.418187634   0.852504121
  H   -1.823231428  -0.731321323  -0.794604393
