11
charge=0 charge_a=0 charge_b=0 selection_a=1-4 selection_b=5-11 scaling=1.05 benchmark_Eint=-0.300 benchmark_unit=kcal/mol group=PS contact=P-N
  H    2.629997318   0.717791816  -1.389164127
  H    2.351997318   1.939791816   0.252835873
  H    3.016997318   0.000791816   0.508835873
  P    1.939997318   0.644791816  -0.152164127
  C   -1.381874457   0.987220699   0.676037045
  H   -2.450848785   0.937089676   0.865672926
  H   -1.162428405   1.764623887  -0.046014002
  H   -0.838288620   1.109451517   1.605517580
  N   -0.991187215  -0.329438293   0.077743993
  O   -0.664723115  -1.214787852   0.847446759
  O   -1.053005555  -0.429519227  -1.134491669
