24
charge=0 charge_a=0 charge_b=0 selection_a=1-13 selection_b=14-24 scaling=1.15 benchmark_Eint=1.301 benchmark_unit=kcal/mol group=PS contact=P-N
  C    2.680204605   0.705092983  -1.879184675
  C    2.396204605   2.294092983   0.447815325
  C    3.257204605  -0.394907017   0.664815325
  H    2.095204605   1.395092983  -2.487184675
  H    2.158204605   2.361092983   1.508815325
  H    3.229204605  -1.417907017   0.289815325
  H    2.630204605  -0.274907017  -2.353184675
  H    3.720204605   1.039092983  -1.869184675
  H    1.800204605   3.043092983  -0.073184675
  H    3.454204605   2.525092983   0.307815325
  H    3.055204605  -0.428907017   1.735815325
  H    4.259204605   0.010092983   0.508815325
  P    1.949204605   0.609092983  -0.179184675
  C   -2.894183941   0.124783509   0.818424304
  C   -4.225966823  -0.243004458   0.968222052
  C   -4.644507309  -1.451927147   0.428178726
  C   -3.713754304  -2.239163427  -0.236317987
  C   -2.404745944  -1.781222326  -0.331638826
  N   -1.991587920  -0.622337041   0.183080849
  H   -2.535180327   1.062732744   1.228599435
  H   -4.913753733   0.404407695   1.494495433
  H   -5.672874465  -1.773031902   0.524073093
  H   -3.992179978  -3.187915839  -0.673035292
  H   -1.653603360  -2.371312333  -0.843903994
