11
charge=0 charge_a=0 charge_b=0 selection_a=1-4 selection_b=5-11 scaling=1.00 benchmark_Eint=2.596 benchmark_unit=kcal/mol group=PS contact=P-N
  H    2.629997318   0.717791816  -1.389164127
  H    2.351997318   1.939791816   0.252835873
  H    3.016997318   0.000791816   0.508835873
  P    1.939997318   0.644791816  -0.152164127
  N   -1.294115430  -0.430121748   0.101504236
  C   -2.055420906   0.671197361   0.692202290
  H   -1.351459444  -1.259510750   0.676728147
  H   -1.963125522   1.552677185   0.057927993
  H   -1.624886942   0.924994217   1.661023048
  H   -3.123593916   0.471916091   0.839824767
  H   -1.661577603  -0.677592865  -0.807283748
