8
charge=0 charge_a=0 charge_b=0 selection_a=1-4 selection_b=5-8 scaling=1.10 benchmark_Eint=1.283 benchmark_unit=kcal/mol group=PS contact=P-N
  H    2.629997318   0.717791816  -1.389164127
  H    2.351997318   1.939791816   0.252835873
  H    3.016997318   0.000791816   0.508835873
  P    1.939997318   0.644791816  -0.152164127
  N   -1.711375732  -0.568805460   0.134232141
  H   -2.346902754   0.199180901   0.313665564
  H   -1.825094615  -1.234343911   0.887938042
  H   -2.020926830  -1.022117780  -0.715450187
