16
charge=0 charge_a=0 charge_b=0 selection_a=1-3 selection_b=4-16 scaling=1.05 benchmark_Eint=1.963 benchmark_unit=kcal/mol group=PS contact=P-O
  H   -1.004584200  -0.486313027   1.938960870
  H   -0.430584200   0.925686973   1.990960870
  O   -0.518584200   0.158686973   1.419960870
  C    1.053546847  -1.942228294  -2.659598520
  C   -0.298993474   0.427886124  -3.417027278
  C    2.363057669   0.559841339  -2.460365096
  H    0.129786710  -2.518878652  -2.613440376
  H   -0.461015002   1.495841550  -3.275343717
  H    3.143539941   0.161742688  -1.812057386
  H    1.783192895  -2.437702149  -2.019521725
  H    1.423165899  -1.950665013  -3.687492765
  H   -1.273230763  -0.060152244  -3.398635523
  H    0.158077303   0.266664537  -4.395505129
  H    2.303317755   1.634508863  -2.285660040
  H    2.647631105   0.388131237  -3.500508644
  P    0.741914192  -0.227026040  -2.031471690
