11
charge=0 charge_a=0 charge_b=0 selection_a=1-3 selection_b=4-11 scaling=1.15 benchmark_Eint=1.063 benchmark_unit=kcal/mol group=PS contact=P-O
  H   -1.004584200  -0.486313027   1.938960870
  H   -0.430584200   0.925686973   1.990960870
  O   -0.518584200   0.158686973   1.419960870
  C    0.592657239  -1.701865931  -3.180513551
  C    1.593504152   0.870529990  -2.971866281
  H    1.063879917  -1.548129728  -4.149110664
  H    1.826486865   1.838275736  -2.546091427
  H    1.941740304   0.704299119  -3.984194232
  H   -0.464270768  -1.928751194  -3.327738772
  H    1.041571704  -2.571253900  -2.696642327
  P    0.753485102  -0.230566743  -2.063154567
