11
charge=0 charge_a=0 charge_b=0 selection_a=1-3 selection_b=4-11 scaling=1.25 benchmark_Eint=0.762 benchmark_unit=kcal/mol group=PS contact=P-O
  H   -1.004584200  -0.486313027   1.938960870
  H   -0.430584200   0.925686973   1.990960870
  O   -0.518584200   0.158686973   1.419960870
  C    0.703250778  -1.735707598  -3.483335153
  C    1.704097692   0.836688323  -3.274687883
  H    1.174473456  -1.581971395  -4.451932267
  H    1.937080405   1.804434069  -2.848913030
  H    2.052333843   0.670457452  -4.287015834
  H   -0.353677228  -1.962592861  -3.630560375
  H    1.152165243  -2.605095568  -2.999463929
  P    0.864078641  -0.264408410  -2.365976169
