23
charge=0 charge_a=0 charge_b=0 selection_a=1-13 selection_b=14-23 scaling=1.15 benchmark_Eint=1.374 benchmark_unit=kcal/mol group=PS contact=P-O
  C    2.680204605   0.705092983  -1.879184675
  C    2.396204605   2.294092983   0.447815325
  C    3.257204605  -0.394907017   0.664815325
  H    2.095204605   1.395092983  -2.487184675
  H    2.158204605   2.361092983   1.508815325
  H    3.229204605  -1.417907017   0.289815325
  H    2.630204605  -0.274907017  -2.353184675
  H    3.720204605   1.039092983  -1.869184675
  H    1.800204605   3.043092983  -0.073184675
  H    3.454204605   2.525092983   0.307815325
  H    3.055204605  -0.428907017   1.735815325
  H    4.259204605   0.010092983   0.508815325
  P    1.949204605   0.609092983  -0.179184675
  C   -3.027628136  -0.946081826   0.278320994
  O   -1.878398083  -0.586967160   0.172675639
  C   -3.883673026  -0.537148392   1.459730996
  C   -3.686391811  -1.827514454  -0.761425583
  H   -4.209714604  -1.423610313   2.008820381
  H   -4.064897082  -2.741933746  -0.300279056
  H   -4.786796504  -0.028111375   1.117302463
  H   -3.321485857   0.114467659   2.121002581
  H   -2.974631212  -2.079234975  -1.543389539
  H   -4.545172403  -1.315122135  -1.199077277
