23
charge=0 charge_a=0 charge_b=0 selection_a=1-13 selection_b=14-23 scaling=1.10 benchmark_Eint=1.584 benchmark_unit=kcal/mol group=PS contact=P-O
  C    2.680204605   0.705092983  -1.879184675
  C    2.396204605   2.294092983   0.447815325
  C    3.257204605  -0.394907017   0.664815325
  H    2.095204605   1.395092983  -2.487184675
  H    2.158204605   2.361092983   1.508815325
  H    3.229204605  -1.417907017   0.289815325
  H    2.630204605  -0.274907017  -2.353184675
  H    3.720204605   1.039092983  -1.869184675
  H    1.800204605   3.043092983  -0.073184675
  H    3.454204605   2.525092983   0.307815325
  H    3.055204605  -0.428907017   1.735815325
  H    4.259204605   0.010092983   0.508815325
  P    1.949204605   0.609092983  -0.179184675
  C   -2.861299180  -0.894106882   0.263030860
  O   -1.712069126  -0.534992216   0.157385504
  C   -3.717344069  -0.485173448   1.444440862
  C   -3.520062854  -1.775539510  -0.776715717
  H   -4.043385647  -1.371635368   1.993530246
  H   -3.898568125  -2.689958802  -0.315569191
  H   -4.620467547   0.023863569   1.102012329
  H   -3.155156900   0.166442603   2.105712446
  H   -2.808302255  -2.027260031  -1.558679674
  H   -4.378843446  -1.263147190  -1.214367411
