18
charge=0 charge_a=0 charge_b=0 selection_a=1-10 selection_b=11-18 scaling=1.10 benchmark_Eint=1.210 benchmark_unit=kcal/mol group=PS contact=P-O
  C    1.618694325   0.013545559  -2.196638185
  O    0.901694325   0.007545559  -1.223638185
  C    1.080694325   0.319545559  -3.579638185
  C    3.099694325  -0.284454441  -2.097638185
  H    1.239694325  -0.536454441  -4.239638185
  H    3.362694325  -1.124454441  -2.743638185
  H    1.618694325   1.161545559  -4.019638185
  H    0.020694325   0.546545559  -3.526638185
  H    3.366694325  -0.515454441  -1.069638185
  H    3.679694325   0.573545559  -2.442638185
  C   -0.908945169   0.847849416   3.219612093
  C   -2.627496387  -0.786092256   1.791583619
  H   -1.714494110   0.668421789   3.928669657
  H   -3.025300929  -1.373762361   0.973969777
  H   -3.231813341  -0.758294210   2.690325678
  H   -0.814137611   1.921142454   3.048432127
  H    0.033621209   0.509143315   3.653591126
  P   -1.177133467  -0.009850489   1.597421010
