10
charge=0 charge_a=0 charge_b=0 selection_a=1-4 selection_b=5-10 scaling=1.25 benchmark_Eint=0.565 benchmark_unit=kcal/mol group=PS contact=P-O
  H    2.629997318   0.717791816  -1.389164127
  H    2.351997318   1.939791816   0.252835873
  H    3.016997318   0.000791816   0.508835873
  P    1.939997318   0.644791816  -0.152164127
  C   -2.904368138   0.152455228   0.666475773
  H   -3.347461924  -0.318634893   1.548692296
  H   -2.144193955  -1.466297386  -0.127585425
  H   -3.687409939   0.317461616  -0.078531898
  H   -2.499782290   1.118215554   0.959027111
  O   -1.820537961  -0.605087423   0.142794305
