22
charge=0 charge_a=0 charge_b=0 selection_a=1-13 selection_b=14-22 scaling=1.25 benchmark_Eint=0.367 benchmark_unit=kcal/mol group=PS contact=P-O
  C    2.680204605   0.705092983  -1.879184675
  C    2.396204605   2.294092983   0.447815325
  C    3.257204605  -0.394907017   0.664815325
  H    2.095204605   1.395092983  -2.487184675
  H    2.158204605   2.361092983   1.508815325
  H    3.229204605  -1.417907017   0.289815325
  H    2.630204605  -0.274907017  -2.353184675
  H    3.720204605   1.039092983  -1.869184675
  H    1.800204605   3.043092983  -0.073184675
  H    3.454204605   2.525092983   0.307815325
  H    3.055204605  -0.428907017   1.735815325
  H    4.259204605   0.010092983   0.508815325
  P    1.949204605   0.609092983  -0.179184675
  C   -2.413522830  -1.716655466  -0.347748778
  C   -3.727638700  -1.795796299  -0.029698140
  C   -4.021871129  -0.626414171   0.744211233
  C   -2.862411603   0.067779809   0.832609904
  H   -2.588251258   0.993295729   1.304976696
  H   -4.968369893  -0.348030352   1.172301805
  H   -1.747637170  -2.347472304  -0.906504007
  H   -4.405606540  -2.582916403  -0.307357192
  O   -1.867196337  -0.583466807   0.171645895
