26
charge=0 charge_a=0 charge_b=0 selection_a=1-13 selection_b=14-26 scaling=1.00 benchmark_Eint=2.793 benchmark_unit=kcal/mol group=PS contact=P-P
  C    2.680204605   0.705092983  -1.879184675
  C    2.396204605   2.294092983   0.447815325
  C    3.257204605  -0.394907017   0.664815325
  H    2.095204605   1.395092983  -2.487184675
  H    2.158204605   2.361092983   1.508815325
  H    3.229204605  -1.417907017   0.289815325
  H    2.630204605  -0.274907017  -2.353184675
  H    3.720204605   1.039092983  -1.869184675
  H    1.800204605   3.043092983  -0.073184675
  H    3.454204605   2.525092983   0.307815325
  H    3.055204605  -0.428907017   1.735815325
  H    4.259204605   0.010092983   0.508815325
  P    1.949204605   0.609092983  -0.179184675
  C   -2.205594752  -1.875297725   1.417832239
  C   -3.081417974   0.700663754   0.631790165
  C   -2.636095865  -1.301379812  -1.320808303
  H   -1.908578150  -1.531140334   2.408451151
  H   -3.084563822   1.499626038  -0.108819970
  H   -2.078892243  -2.178766575  -1.648915897
  H   -1.632122860  -2.775101667   1.196339904
  H   -3.267648728  -2.130101208   1.437133471
  H   -2.816625472   1.141040238   1.592837241
  H   -4.086485830   0.279582769   0.701463752
  H   -2.626022014  -0.578167007  -2.136812443
  H   -3.669397590  -1.593974337  -1.123220378
  P   -1.812370442  -0.566334656   0.166605911
