26
charge=0 charge_a=0 charge_b=0 selection_a=1-13 selection_b=14-26 scaling=1.15 benchmark_Eint=1.080 benchmark_unit=kcal/mol group=PS contact=P-P
  C    2.680204605   0.705092983  -1.879184675
  C    2.396204605   2.294092983   0.447815325
  C    3.257204605  -0.394907017   0.664815325
  H    2.095204605   1.395092983  -2.487184675
  H    2.158204605   2.361092983   1.508815325
  H    3.229204605  -1.417907017   0.289815325
  H    2.630204605  -0.274907017  -2.353184675
  H    3.720204605   1.039092983  -1.869184675
  H    1.800204605   3.043092983  -0.073184675
  H    3.454204605   2.525092983   0.307815325
  H    3.055204605  -0.428907017   1.735815325
  H    4.259204605   0.010092983   0.508815325
  P    1.949204605   0.609092983  -0.179184675
  C   -2.769694565  -2.051569234   1.469688284
  C   -3.645517787   0.524392245   0.683646210
  C   -3.200195678  -1.477651321  -1.268952259
  H   -2.472677962  -1.707411843   2.460307196
  H   -3.648663635   1.323354528  -0.056963925
  H   -2.642992056  -2.355038084  -1.597059852
  H   -2.196222673  -2.951373177   1.248195949
  H   -3.831748541  -2.306372717   1.488989516
  H   -3.380725284   0.964768729   1.644693286
  H   -4.650585643   0.103311259   0.753319797
  H   -3.190121826  -0.754438517  -2.084956399
  H   -4.233497403  -1.770245846  -1.071364333
  P   -2.376470254  -0.742606165   0.218461956
