12
charge=0 charge_a=0 charge_b=0 selection_a=1-4 selection_b=5-12 scaling=1.25 benchmark_Eint=0.173 benchmark_unit=kcal/mol group=PS contact=P-P
  H    2.629997318   0.717791816  -1.389164127
  H    2.351997318   1.939791816   0.252835873
  H    3.016997318   0.000791816   0.508835873
  P    1.939997318   0.644791816  -0.152164127
  C   -3.844719103   0.133054721   0.854010402
  C   -3.007641034  -2.259889612  -0.257550090
  H   -4.762020952  -0.451288724   0.822928939
  H   -2.350437112  -3.005463212  -0.686851863
  H   -4.046233001  -2.550139117  -0.153670587
  H   -3.983873706   1.050032115   0.279521538
  H   -3.642512390   0.429573240   1.884874221
  P   -2.382316707  -0.791804350   0.186857548
