26
charge=0 charge_a=0 charge_b=0 selection_a=1-13 selection_b=14-26 scaling=1.25 benchmark_Eint=0.730 benchmark_unit=kcal/mol group=PS contact=P-P
  C    2.680204605   0.705092983  -1.879184675
  C    2.396204605   2.294092983   0.447815325
  C    3.257204605  -0.394907017   0.664815325
  H    2.095204605   1.395092983  -2.487184675
  H    2.158204605   2.361092983   1.508815325
  H    3.229204605  -1.417907017   0.289815325
  H    2.630204605  -0.274907017  -2.353184675
  H    3.720204605   1.039092983  -1.869184675
  H    1.800204605   3.043092983  -0.073184675
  H    3.454204605   2.525092983   0.307815325
  H    3.055204605  -0.428907017   1.735815325
  H    4.259204605   0.010092983   0.508815325
  P    1.949204605   0.609092983  -0.179184675
  C   -3.145891054  -2.169124180   1.504270926
  C   -4.021714276   0.406837299   0.718228852
  C   -3.576392166  -1.595206267  -1.234369616
  H   -2.848874451  -1.824966789   2.494889838
  H   -4.024860124   1.205799583  -0.022381283
  H   -3.019188545  -2.472593030  -1.562477210
  H   -2.572419161  -3.068928122   1.282778591
  H   -4.207945029  -2.423927663   1.523572158
  H   -3.756921773   0.847213783   1.679275928
  H   -5.026782132  -0.014243686   0.787902439
  H   -3.566318315  -0.871993462  -2.050373756
  H   -4.609693892  -1.887800792  -1.036781691
  P   -2.752666743  -0.860161111   0.253044598
