16
charge=0 charge_a=0 charge_b=0 selection_a=1-8 selection_b=9-16 scaling=1.15 benchmark_Eint=0.525 benchmark_unit=kcal/mol group=PS contact=P-P
  C    0.666555839   1.619708927  -3.042743516
  C    0.203555839   3.223708927  -0.834743516
  H    0.767555839   2.623708927  -3.449743516
  H   -0.014444161   3.506708927   0.187256484
  H    0.359555839   4.041708927  -1.527743516
  H   -0.121444161   1.091708927  -3.581743516
  H    1.593555839   1.068708927  -3.211743516
  P    0.276555839   1.616708927  -1.229743516
  C   -0.676551942  -1.667227046   3.078495729
  C   -0.210020413  -3.271251892   0.871257267
  H   -0.765758780  -2.671310015   3.488038804
  H    0.008730398  -3.554257174  -0.150580828
  H   -0.364478852  -4.089262737   1.564589689
  H   -1.609473359  -1.127119700   3.246396547
  H    0.105746886  -1.128252622   3.616088618
  P   -0.284686581  -1.664240169   1.265897975
