14
charge=0 charge_a=0 charge_b=0 selection_a=1-10 selection_b=11-14 scaling=1.10 benchmark_Eint=0.329 benchmark_unit=kcal/mol group=PS contact=S-H
  C    2.036993965   0.037917158  -2.755313450
  C    1.525993965   0.351917158  -4.132313450
  C    3.506993965  -0.259082842  -2.678313450
  H    1.713993965  -0.493082842  -4.800313450
  H    3.751993965  -1.104082842  -3.329313450
  H    2.072993965   1.200917158  -4.551313450
  H    0.463993965   0.573917158  -4.125313450
  H    3.819993965  -0.485082842  -1.663313450
  H    4.080993965   0.592917158  -3.053313450
  S    1.069993965   0.019917158  -1.447313450
  C   -0.966339563  -0.017987707   1.307106668
  C   -1.676834227  -0.030578464   2.268964145
  H   -0.335371775  -0.006242701   0.453636279
  H   -2.307378088  -0.041465479   3.122724598
