11
charge=0 charge_a=0 charge_b=0 selection_a=1-6 selection_b=7-11 scaling=1.25 benchmark_Eint=-0.384 benchmark_unit=kcal/mol group=PS contact=S-H
  C    0.170692492  -0.415619026  -3.272120308
  H   -0.260307508  -1.293619026  -3.744120308
  H    1.495692492  -1.712619026  -1.751120308
  H    1.036692492  -0.071619026  -3.832120308
  H   -0.574307508   0.376380974  -3.258120308
  S    0.595692492  -0.741619026  -1.528120308
  C   -0.723086342   0.900220492   1.854921689
  H   -0.363101049   0.452049757   0.931457244
  H    0.097127452   0.972165002   2.566560867
  H   -1.111911730   1.894157864   1.648833555
  H   -1.513165596   0.281253659   2.274492697
