7
charge=0 charge_a=0 charge_b=0 selection_a=1-3 selection_b=4-7 scaling=1.15 benchmark_Eint=0.284 benchmark_unit=kcal/mol group=PS contact=S-H
  H    0.880172729  -2.754189816   0.122632441
  H    0.117172729  -2.395189816  -1.621367559
  S    0.329172729  -1.699189816  -0.494367559
  B   -0.401424697   2.072154519   0.602879068
  H   -0.184289181   0.951300858   0.276774424
  H    0.361376457   2.642142068   1.313373679
  H   -1.380957028   2.623322136   0.219810314
