5
charge=0 charge_a=0 charge_b=0 selection_a=1-3 selection_b=4-5 scaling=1.05 benchmark_Eint=1.403 benchmark_unit=kcal/mol group=PS contact=S-H
  H    0.880172729  -2.754189816   0.122632441
  H    0.117172729  -2.395189816  -1.621367559
  S    0.329172729  -1.699189816  -0.494367559
  H   -0.125806160   0.649411468   0.188941788
  H   -0.261420200   1.349451220   0.392613527
