5
charge=0 charge_a=0 charge_b=0 selection_a=1-3 selection_b=4-5 scaling=1.25 benchmark_Eint=-1.744 benchmark_unit=kcal/mol group=PS contact=S-H
  H    0.880172729  -2.754189816   0.122632441
  H    0.117172729  -2.395189816  -1.621367559
  S    0.329172729  -1.699189816  -0.494367559
  F   -0.269866186   1.393049404   0.405298118
  H   -0.101224272   0.522519749   0.152023517
