11
charge=0 charge_a=0 charge_b=0 selection_a=1-6 selection_b=7-11 scaling=1.10 benchmark_Eint=0.548 benchmark_unit=kcal/mol group=PS contact=S-H
  C    0.170692492  -0.415619026  -3.272120308
  H   -0.260307508  -1.293619026  -3.744120308
  H    1.495692492  -1.712619026  -1.751120308
  H    1.036692492  -0.071619026  -3.832120308
  H   -0.574307508   0.376380974  -3.258120308
  S    0.595692492  -0.741619026  -1.528120308
  C   -0.608044884   0.756997378   1.559807699
  H   -0.248059591   0.308826643   0.636343254
  H    0.212168910   0.828941888   2.271446877
  H   -0.996870272   1.750934749   1.353719565
  H   -1.398124138   0.138030545   1.979378708
