8
charge=0 charge_a=0 charge_b=0 selection_a=1-6 selection_b=7-8 scaling=1.00 benchmark_Eint=3.598 benchmark_unit=kcal/mol group=PS contact=S-H
  C    0.170692492  -0.415619026  -3.272120308
  H   -0.260307508  -1.293619026  -3.744120308
  H    1.495692492  -1.712619026  -1.751120308
  H    1.036692492  -0.071619026  -3.832120308
  H   -0.574307508   0.376380974  -3.258120308
  S    0.595692492  -0.741619026  -1.528120308
  F   -0.306813659   0.381973669   0.787064115
  H   -0.001628226   0.002027092   0.004176862
