7
charge=0 charge_a=0 charge_b=0 selection_a=1-3 selection_b=4-7 scaling=1.05 benchmark_Eint=1.276 benchmark_unit=kcal/mol group=PS contact=S-H
  H    0.880172729  -2.754189816   0.122632441
  H    0.117172729  -2.395189816  -1.621367559
  S    0.329172729  -1.699189816  -0.494367559
  C   -0.287204509   1.482549841   0.431337652
  C   -0.505612971   2.611296070   0.760519506
  H   -0.093093705   0.480549760   0.139812639
  H   -0.699265770   3.613102514   1.052912124
