8
charge=0 charge_a=0 charge_b=0 selection_a=1-5 selection_b=6-8 scaling=1.15 benchmark_Eint=-0.249 benchmark_unit=kcal/mol group=PS contact=S-C
  C   -1.700000000   0.000000000   0.000000000
  H   -2.787765140   0.000000000  -0.000000000
  H   -1.337649723   1.026186765   0.000000000
  H   -1.336769018  -0.512274047   0.887247178
  H   -1.337354622  -0.511979565  -0.888678938
  H    2.691303818  -0.779023833   0.576973032
  H    2.692680293   0.777672074  -0.575971874
  S    1.764492465  -0.000597193   0.000442302
