8
charge=0 charge_a=0 charge_b=0 selection_a=1-5 selection_b=6-8 scaling=1.25 benchmark_Eint=-0.467 benchmark_unit=kcal/mol group=PS contact=S-C
  C   -1.700000000   0.000000000   0.000000000
  H   -2.787765140   0.000000000  -0.000000000
  H   -1.337649723   1.026186765   0.000000000
  H   -1.336769018  -0.512274047   0.887247178
  H   -1.337354622  -0.511979565  -0.888678938
  H    2.968906932  -0.779117788   0.577042619
  H    2.970283407   0.777578119  -0.575902288
  S    2.042095579  -0.000691148   0.000511888
