15
charge=0 charge_a=0 charge_b=0 selection_a=1-10 selection_b=11-15 scaling=1.00 benchmark_Eint=1.680 benchmark_unit=kcal/mol group=PS contact=S-C
  C    2.036993965   0.037917158  -2.755313450
  C    1.525993965   0.351917158  -4.132313450
  C    3.506993965  -0.259082842  -2.678313450
  H    1.713993965  -0.493082842  -4.800313450
  H    3.751993965  -1.104082842  -3.329313450
  H    2.072993965   1.200917158  -4.551313450
  H    0.463993965   0.573917158  -4.125313450
  H    3.819993965  -0.485082842  -1.663313450
  H    4.080993965   0.592917158  -3.053313450
  S    1.069993965   0.019917158  -1.447313450
  C   -0.694195729  -0.012339484   0.939680758
  H   -1.340600645  -0.023999144   1.814470868
  H   -1.258239931  -0.338451035   0.067979895
  H   -0.324113974   0.996354815   0.774925465
  H    0.145356631  -0.685234900   1.100144438
