9
charge=0 charge_a=0 charge_b=0 selection_a=1-3 selection_b=4-9 scaling=1.00 benchmark_Eint=2.349 benchmark_unit=kcal/mol group=PS contact=S-C
  H    0.880172729  -2.754189816   0.122632441
  H    0.117172729  -2.395189816  -1.621367559
  S    0.329172729  -1.699189816  -0.494367559
  C   -0.232990286   1.202695992   0.349916105
  C    0.288616050   0.956751588   1.542560721
  H    0.371610682   1.559378509  -0.473465491
  H   -1.286303692   1.058235385   0.149399263
  H    1.341929455   1.101212194   1.743077563
  H   -0.315348211   0.600824711   2.365788654
