15
charge=0 charge_a=0 charge_b=0 selection_a=1-3 selection_b=4-15 scaling=1.00 benchmark_Eint=2.604 benchmark_unit=kcal/mol group=PS contact=S-C
  H    0.880172729  -2.754189816   0.122632441
  H    0.117172729  -2.395189816  -1.621367559
  S    0.329172729  -1.699189816  -0.494367559
  C   -0.214812637   1.108862954   0.322616030
  C   -1.026127878   0.650852449   1.356631966
  C   -0.477478459   0.392978424   2.608286392
  C    0.881328388   0.592329351   2.826130737
  C    1.691978645   1.050373925   1.793362452
  C    1.143607789   1.308934331   0.541036248
  H   -0.641661626   1.309733249  -0.650966049
  H   -2.082660506   0.495643532   1.185678761
  H   -1.108319911   0.036113659   3.411121121
  H    1.308177378   0.391459055   3.799712816
  H    2.749176257   1.205548774   1.963068006
  H    1.773077162   1.664880301  -0.263306200
