22
charge=0 charge_a=0 charge_b=0 selection_a=1-10 selection_b=11-22 scaling=1.00 benchmark_Eint=2.231 benchmark_unit=kcal/mol group=PS contact=S-C
  C    2.036993965   0.037917158  -2.755313450
  C    1.525993965   0.351917158  -4.132313450
  C    3.506993965  -0.259082842  -2.678313450
  H    1.713993965  -0.493082842  -4.800313450
  H    3.751993965  -1.104082842  -3.329313450
  H    2.072993965   1.200917158  -4.551313450
  H    0.463993965   0.573917158  -4.125313450
  H    3.819993965  -0.485082842  -1.663313450
  H    4.080993965   0.592917158  -3.053313450
  S    1.069993965   0.019917158  -1.447313450
  C   -0.645830524  -0.012021665   0.873574276
  C    0.470343959  -0.126077521   1.697188741
  C    1.099121249   1.017524601   2.177779321
  C    0.612830775   2.274329513   1.834973272
  C   -0.502579711   2.388506606   1.012542703
  C   -1.132326024   1.244767156   0.531746851
  H   -1.135125127  -0.901634119   0.499954855
  H    0.847889865  -1.104152077   1.962528619
  H    1.967068477   0.928209433   2.816956455
  H    1.102125379   3.163941968   2.208592692
  H   -0.880889614   3.366459925   0.746018929
  H   -1.999792834   1.332117626  -0.108383782
