9
charge=0 charge_a=0 charge_b=0 selection_a=1-3 selection_b=4-9 scaling=1.10 benchmark_Eint=0.375 benchmark_unit=kcal/mol group=PS contact=S-C
  H    0.880172729  -2.754189816   0.122632441
  H    0.117172729  -2.395189816  -1.621367559
  S    0.329172729  -1.699189816  -0.494367559
  C   -0.289187386   1.492785453   0.434315633
  C    0.232418950   1.246841049   1.626960249
  H    0.315413582   1.849467970  -0.389065962
  H   -1.342500791   1.348324847   0.233798791
  H    1.285732355   1.391301656   1.827477091
  H   -0.371545311   0.890914173   2.450188182
