18
charge=0 charge_a=0 charge_b=0 selection_a=1-6 selection_b=7-18 scaling=1.00 benchmark_Eint=2.529 benchmark_unit=kcal/mol group=PS contact=S-C
  C    0.170692492  -0.415619026  -3.272120308
  H   -0.260307508  -1.293619026  -3.744120308
  H    1.495692492  -1.712619026  -1.751120308
  H    1.036692492  -0.071619026  -3.832120308
  H   -0.574307508   0.376380974  -3.258120308
  S    0.595692492  -0.741619026  -1.528120308
  C   -0.399047782   0.496802345   1.023670815
  C   -0.856414960  -0.747016618   1.449023198
  C   -0.019131639  -1.582271371   2.180774617
  C    1.274635674  -1.174735695   2.486771041
  C    1.731617572   0.068081413   2.062339441
  C    0.894306933   0.904335744   1.330578148
  H   -1.050467069   1.146663335   0.454685221
  H   -1.862651968  -1.062999572   1.209820656
  H   -0.374832546  -2.549143849   2.510155057
  H    1.926054962  -1.824596685   3.055756634
  H    2.738239861   0.385066222   2.300621200
  H    1.248599433   1.871152585   0.999461825
