11
charge=0 charge_a=0 charge_b=0 selection_a=1-6 selection_b=7-11 scaling=1.15 benchmark_Eint=-0.276 benchmark_unit=kcal/mol group=PS contact=S-C
  C    0.170692492  -0.415619026  -3.272120308
  H   -0.260307508  -1.293619026  -3.744120308
  H    1.495692492  -1.712619026  -1.751120308
  H    1.036692492  -0.071619026  -3.832120308
  H   -0.574307508   0.376380974  -3.258120308
  S    0.595692492  -0.741619026  -1.528120308
  C   -0.552980686   0.688550041   1.420034076
  H   -0.912690344   1.136445390   2.343739505
  H   -0.485314703   1.453397806   0.648810236
  H    0.429288485   0.253515664   1.585748791
  H   -1.244501078  -0.087902474   1.100180923
