12
charge=0 charge_a=0 charge_b=0 selection_a=1-6 selection_b=7-12 scaling=1.15 benchmark_Eint=0.087 benchmark_unit=kcal/mol group=PS contact=S-C
  C    0.170692492  -0.415619026  -3.272120308
  H   -0.260307508  -1.293619026  -3.744120308
  H    1.495692492  -1.712619026  -1.751120308
  H    1.036692492  -0.071619026  -3.832120308
  H   -0.574307508   0.376380974  -3.258120308
  S    0.595692492  -0.741619026  -1.528120308
  C   -0.583100215   0.725942024   1.495817542
  C    0.213639731  -0.070449613   2.192903491
  H   -0.256560782   1.698238340   1.151239726
  H   -1.594756930   0.437819503   1.242675084
  H    1.225296446   0.217672907   2.446045949
  H   -0.112495361  -1.041931192   2.537896890
