13
charge=0 charge_a=0 charge_b=0 selection_a=1-9 selection_b=10-13 scaling=1.05 benchmark_Eint=0.997 benchmark_unit=kcal/mol group=PS contact=S-C
  C    2.710400666  -1.252991357   1.254353618
  C    3.069400666  -2.471991357   1.753353618
  C    2.004400666  -3.412991357   1.713353618
  C    0.860400666  -2.888991357   1.185353618
  H   -0.089599334  -3.373991357   1.037353618
  H    2.085400666  -4.431991357   2.061353618
  H    3.313400666  -0.365991357   1.165353618
  H    4.055400666  -2.690991357   2.135353618
  S    1.073400666  -1.244991357   0.733353618
  C   -0.857020982   0.994021850  -0.585521751
  C    0.022628637   1.314023323  -1.329797644
  H   -1.638015057   0.709514047   0.074609723
  H    0.803218718   1.597931595  -1.990620024
