13
charge=0 charge_a=0 charge_b=0 selection_a=1-9 selection_b=10-13 scaling=1.10 benchmark_Eint=0.265 benchmark_unit=kcal/mol group=PS contact=S-C
  C    2.710400666  -1.252991357   1.254353618
  C    3.069400666  -2.471991357   1.753353618
  C    2.004400666  -3.412991357   1.713353618
  C    0.860400666  -2.888991357   1.185353618
  H   -0.089599334  -3.373991357   1.037353618
  H    2.085400666  -4.431991357   2.061353618
  H    3.313400666  -0.365991357   1.165353618
  H    4.055400666  -2.690991357   2.135353618
  S    1.073400666  -1.244991357   0.733353618
  C   -0.948856372   1.100537777  -0.648264228
  C   -0.069206753   1.420539250  -1.392540120
  H   -1.729850448   0.816029974   0.011867247
  H    0.711383328   1.704447522  -2.053362501
