17
charge=0 charge_a=0 charge_b=0 selection_a=1-11 selection_b=12-17 scaling=1.05 benchmark_Eint=1.385 benchmark_unit=kcal/mol group=PS contact=S-N
  C   -0.175446694  -2.007467188   1.577808032
  C   -0.829446694  -2.993467188   2.306808032
  C   -2.215446694  -3.053467188   2.245808032
  C   -2.885446694  -2.126467188   1.458808032
  C   -2.138446694  -1.179467188   0.767808032
  N   -0.807446694  -1.112467188   0.818808032
  H    0.906553306  -1.933467188   1.603808032
  H   -0.263446694  -3.693467188   2.905808032
  H   -2.760446694  -3.806467188   2.798808032
  H   -3.963446694  -2.133467188   1.379808032
  H   -2.630446694  -0.441467188   0.144808032
  C    1.073463278   2.822459418  -0.433747694
  H    0.646529297   3.455156020  -1.206309267
  H    1.437538867   0.991895470  -1.939655924
  H    2.135844969   3.024924224  -0.323089911
  H    0.576224138   3.036496988   0.509346234
  S    0.767336779   1.057205380  -0.778133743
