6
charge=0 charge_a=0 charge_b=0 selection_a=1-3 selection_b=4-6 scaling=1.05 benchmark_Eint=1.216 benchmark_unit=kcal/mol group=PS contact=S-N
  H    0.880172729  -2.754189816   0.122632441
  H    0.117172729  -2.395189816  -1.621367559
  S    0.329172729  -1.699189816  -0.494367559
  C   -0.459469676   2.371782733   0.690053830
  H   -0.654003925   3.377670289   0.983588584
  N   -0.250068865   1.290855623   0.375565542
