10
charge=0 charge_a=0 charge_b=0 selection_a=1-6 selection_b=7-10 scaling=1.00 benchmark_Eint=2.392 benchmark_unit=kcal/mol group=PS contact=S-N
  C    0.170692492  -0.415619026  -3.272120308
  H   -0.260307508  -1.293619026  -3.744120308
  H    1.495692492  -1.712619026  -1.751120308
  H    1.036692492  -0.071619026  -3.832120308
  H   -0.574307508   0.376380974  -3.258120308
  S    0.595692492  -0.741619026  -1.528120308
  N   -0.451078211   0.561578647   1.157143635
  H    0.143434662   0.326259663   1.942683843
  H   -1.385948845   0.247875228   1.384196630
  H   -0.480237646   1.570798824   1.094706762
