13
charge=0 charge_a=0 charge_b=0 selection_a=1-9 selection_b=10-13 scaling=1.00 benchmark_Eint=2.415 benchmark_unit=kcal/mol group=PS contact=S-N
  C    2.710400666  -1.252991357   1.254353618
  C    3.069400666  -2.471991357   1.753353618
  C    2.004400666  -3.412991357   1.713353618
  C    0.860400666  -2.888991357   1.185353618
  H   -0.089599334  -3.373991357   1.037353618
  H    2.085400666  -4.431991357   2.061353618
  H    3.313400666  -0.365991357   1.165353618
  H    4.055400666  -2.690991357   2.135353618
  S    1.073400666  -1.244991357   0.733353618
  N   -0.754219015   0.874786261  -0.515286846
  H   -0.380582990   1.220732004  -1.390850472
  H   -0.872277897   1.672328810   0.096214571
  H   -1.676020349   0.505235385  -0.707610663
