6
charge=0 charge_a=0 charge_b=0 selection_a=1-3 selection_b=4-6 scaling=1.15 benchmark_Eint=0.378 benchmark_unit=kcal/mol group=PS contact=S-N
  H    0.880172729  -2.754189816   0.122632441
  H    0.117172729  -2.395189816  -1.621367559
  S    0.329172729  -1.699189816  -0.494367559
  C   -0.514620738   2.656472547   0.772882368
  H   -0.709154987   3.662360102   1.066417122
  N   -0.305219927   1.575545437   0.458394080
