17
charge=0 charge_a=0 charge_b=0 selection_a=1-11 selection_b=12-17 scaling=1.25 benchmark_Eint=0.134 benchmark_unit=kcal/mol group=PS contact=S-N
  C   -0.175446694  -2.007467188   1.577808032
  C   -0.829446694  -2.993467188   2.306808032
  C   -2.215446694  -3.053467188   2.245808032
  C   -2.885446694  -2.126467188   1.458808032
  C   -2.138446694  -1.179467188   0.767808032
  N   -0.807446694  -1.112467188   0.818808032
  H    0.906553306  -1.933467188   1.603808032
  H   -0.263446694  -3.693467188   2.905808032
  H   -2.760446694  -3.806467188   2.798808032
  H   -3.963446694  -2.133467188   1.379808032
  H   -2.630446694  -0.441467188   0.144808032
  C    1.373389352   3.235685354  -0.737893937
  H    0.946455372   3.868381957  -1.510455511
  H    1.737464942   1.405121406  -2.243802167
  H    2.435771043   3.438150161  -0.627236154
  H    0.876150212   3.449722925   0.205199990
  S    1.067262854   1.470431317  -1.082279986
