7
charge=0 charge_a=0 charge_b=0 selection_a=1-3 selection_b=4-7 scaling=1.15 benchmark_Eint=0.473 benchmark_unit=kcal/mol group=PS contact=S-N
  H    0.880172729  -2.754189816   0.122632441
  H    0.117172729  -2.395189816  -1.621367559
  S    0.329172729  -1.699189816  -0.494367559
  N   -0.311748519   1.609246035   0.468199036
  H    0.188968001   1.855651771   1.313457091
  H   -1.295919143   1.761396079   0.647655293
  H   -0.032418744   2.266380205  -0.248336769
