10
charge=0 charge_a=0 charge_b=0 selection_a=1-7 selection_b=8-10 scaling=1.00 benchmark_Eint=2.626 benchmark_unit=kcal/mol group=PS contact=S-N
  N    0.907607368  -0.903143900  -0.959468583
  C    2.253607368  -0.330143900  -0.922468583
  H    0.540607368  -0.905143900  -1.901468583
  H    2.615607368  -0.329143900   0.105531417
  H    2.209607368   0.708856100  -1.249468583
  H    2.996607368  -0.847143900  -1.541468583
  H    0.914607368  -1.864143900  -0.645468583
  H   -0.541679294   1.859474370   1.580410000
  H   -2.073690680   0.742235272   1.183794430
  S   -0.781325148   0.777482716   0.825970523
