21
charge=0 charge_a=0 charge_b=0 selection_a=1-10 selection_b=11-21 scaling=1.15 benchmark_Eint=-0.194 benchmark_unit=kcal/mol group=PS contact=S-N
  C    2.036993965   0.037917158  -2.755313450
  C    1.525993965   0.351917158  -4.132313450
  C    3.506993965  -0.259082842  -2.678313450
  H    1.713993965  -0.493082842  -4.800313450
  H    3.751993965  -1.104082842  -3.329313450
  H    2.072993965   1.200917158  -4.551313450
  H    0.463993965   0.573917158  -4.125313450
  H    3.819993965  -0.485082842  -1.663313450
  H    4.080993965   0.592917158  -3.053313450
  S    1.069993965   0.019917158  -1.447313450
  C   -1.855088933   0.789432329   1.164885047
  C   -2.710744306   0.813582061   2.259701777
  C   -2.453919864  -0.044677398   3.320714928
  C   -1.353637054  -0.887620067   3.240568855
  C   -0.558969745  -0.834859991   2.101262381
  N   -0.795885289  -0.014814825   1.076543907
  H   -2.027755836   1.447313256   0.319749065
  H   -3.555392377   1.488464138   2.275851620
  H   -3.096767662  -0.055271239   4.190472067
  H   -1.113264246  -1.572878588   4.041203399
  H    0.307195799  -1.479593805   2.006856033
