16
charge=0 charge_a=0 charge_b=0 selection_a=1-9 selection_b=10-16 scaling=1.10 benchmark_Eint=-1.272 benchmark_unit=kcal/mol group=PS contact=S-N
  C    2.710400666  -1.252991357   1.254353618
  C    3.069400666  -2.471991357   1.753353618
  C    2.004400666  -3.412991357   1.713353618
  C    0.860400666  -2.888991357   1.185353618
  H   -0.089599334  -3.373991357   1.037353618
  H    2.085400666  -4.431991357   2.061353618
  H    3.313400666  -0.365991357   1.165353618
  H    4.055400666  -2.690991357   2.135353618
  S    1.073400666  -1.244991357   0.733353618
  C    0.320390232   1.306858784  -1.466489250
  H   -0.076436013   2.101647697  -2.092604667
  H    0.581916934   0.445730318  -2.069756644
  H    1.149180287   1.672279920  -0.871565356
  N   -0.781387978   0.906298375  -0.533848841
  O   -0.857713605   1.502769252   0.525047704
  O   -1.538861126   0.030632938  -0.911734370
