13
charge=0 charge_a=0 charge_b=0 selection_a=1-7 selection_b=8-13 scaling=1.15 benchmark_Eint=0.670 benchmark_unit=kcal/mol group=PS contact=S-N
  N    0.907607368  -0.903143900  -0.959468583
  C    2.253607368  -0.330143900  -0.922468583
  H    0.540607368  -0.905143900  -1.901468583
  H    2.615607368  -0.329143900   0.105531417
  H    2.209607368   0.708856100  -1.249468583
  H    2.996607368  -0.847143900  -1.541468583
  H    0.914607368  -1.864143900  -0.645468583
  C   -2.851160016   0.969966756   1.588592467
  H   -3.392207720   1.857759934   1.274714057
  H   -0.790979078   2.161163282   1.885207267
  H   -2.982002329   0.804377665   2.655059786
  H   -3.244360334   0.110935960   1.050127426
  S   -1.084511389   1.079177935   1.146481003
