12
charge=0 charge_a=0 charge_b=0 selection_a=1-3 selection_b=4-12 scaling=1.25 benchmark_Eint=-0.084 benchmark_unit=kcal/mol group=PS contact=S-O
  H   -1.004584200  -0.486313027   1.938960870
  H   -0.430584200   0.925686973   1.990960870
  O   -0.518584200   0.158686973   1.419960870
  C    2.194595901   0.155157751  -2.715754368
  C    2.166605072  -0.187308994  -4.037032553
  C    0.924320166  -0.758719470  -4.426293751
  C    0.036249209  -0.837956201  -3.393265428
  H   -0.968981025  -1.223954681  -3.405362902
  H    0.701785015  -1.095366618  -5.427878897
  H    3.001127455   0.601806890  -2.160497311
  H    2.999889119  -0.038371278  -4.707507201
  S    0.708126725  -0.216687062  -1.938956567
