18
charge=0 charge_a=0 charge_b=0 selection_a=1-9 selection_b=10-18 scaling=1.10 benchmark_Eint=0.069 benchmark_unit=kcal/mol group=PS contact=S-O
  C    2.710400666  -1.252991357   1.254353618
  C    3.069400666  -2.471991357   1.753353618
  C    2.004400666  -3.412991357   1.713353618
  C    0.860400666  -2.888991357   1.185353618
  H   -0.089599334  -3.373991357   1.037353618
  H    2.085400666  -4.431991357   2.061353618
  H    3.313400666  -0.365991357   1.165353618
  H    4.055400666  -2.690991357   2.135353618
  S    1.073400666  -1.244991357   0.733353618
  C   -1.093133864   2.101344409   0.009688754
  C   -1.923336294   2.777936329  -0.819351233
  C   -2.132738195   1.928813027  -1.954297691
  C   -1.412913558   0.805517401  -1.721648969
  H   -1.257380033  -0.101787174  -2.276159320
  H   -2.737084147   2.133475629  -2.820033326
  H   -0.659400542   2.323985326   0.966687933
  H   -2.336853430   3.756050856  -0.650269743
  O   -0.769621122   0.892650503  -0.525809655
