13
charge=0 charge_a=0 charge_b=0 selection_a=1-3 selection_b=4-13 scaling=1.10 benchmark_Eint=0.632 benchmark_unit=kcal/mol group=PS contact=S-O
  H   -1.004584200  -0.486313027   1.938960870
  H   -0.430584200   0.925686973   1.990960870
  O   -0.518584200   0.158686973   1.419960870
  C    1.091976659  -0.334145296  -2.989994926
  C    0.177942898  -0.404277011  -4.179730118
  C    2.555801845  -0.433906305  -3.309841085
  H    0.323640858  -1.352048741  -4.705176454
  H    2.760035306  -1.371211428  -3.836717542
  H    0.430526583   0.383842298  -4.894321215
  H   -0.863854483  -0.310708549  -3.891493824
  H    3.168371966  -0.384292163  -2.414538743
  H    2.845372778   0.370285241  -3.992065118
  S    0.536976198  -0.164314932  -1.470320903
