13
charge=0 charge_a=0 charge_b=0 selection_a=1-3 selection_b=4-13 scaling=1.25 benchmark_Eint=0.073 benchmark_unit=kcal/mol group=PS contact=S-O
  H    0.880172729  -2.754189816   0.122632441
  H    0.117172729  -2.395189816  -1.621367559
  S    0.329172729  -1.699189816  -0.494367559
  C   -0.542228303   2.798982809   0.814344746
  O   -0.321196508   1.658016559   0.482388484
  C    0.526873977   3.663949133   1.450444247
  C   -1.900449180   3.437951509   0.617060563
  H    0.212556578   3.970222565   2.450953196
  H   -2.294427864   3.796051022   1.570281699
  H    0.671253635   4.578153727   0.871313454
  H    1.461797747   3.116410548   1.514139159
  H   -2.591338644   2.720743022   0.181494569
  H   -1.815248510   4.307895388  -0.036795303
