19
charge=0 charge_a=0 charge_b=0 selection_a=1-10 selection_b=11-19 scaling=1.15 benchmark_Eint=-0.513 benchmark_unit=kcal/mol group=PS contact=S-O
  C    2.036993965   0.037917158  -2.755313450
  C    1.525993965   0.351917158  -4.132313450
  C    3.506993965  -0.259082842  -2.678313450
  H    1.713993965  -0.493082842  -4.800313450
  H    3.751993965  -1.104082842  -3.329313450
  H    2.072993965   1.200917158  -4.551313450
  H    0.463993965   0.573917158  -4.125313450
  H    3.819993965  -0.485082842  -1.663313450
  H    4.080993965   0.592917158  -3.053313450
  S    1.069993965   0.019917158  -1.447313450
  C   -0.636438615  -0.833245886   2.095089213
  C   -1.614526946  -0.567528823   2.993453092
  C   -2.394601922   0.494758713   2.431322126
  C   -1.826813675   0.787192231   1.237100562
  H   -2.052300161   1.500245983   0.465359550
  H   -3.257521646   0.969921353   2.862841554
  H    0.176216692  -1.535071624   2.071152082
  H   -1.766400143  -1.060847971   3.936778991
  O   -0.749811349  -0.013957192   1.014222589
