19
charge=0 charge_a=0 charge_b=0 selection_a=1-10 selection_b=11-19 scaling=1.05 benchmark_Eint=0.641 benchmark_unit=kcal/mol group=PS contact=S-O
  C    2.036993965   0.037917158  -2.755313450
  C    1.525993965   0.351917158  -4.132313450
  C    3.506993965  -0.259082842  -2.678313450
  H    1.713993965  -0.493082842  -4.800313450
  H    3.751993965  -1.104082842  -3.329313450
  H    2.072993965   1.200917158  -4.551313450
  H    0.463993965   0.573917158  -4.125313450
  H    3.819993965  -0.485082842  -1.663313450
  H    4.080993965   0.592917158  -3.053313450
  S    1.069993965   0.019917158  -1.447313450
  C   -0.478160352  -0.830299652   1.880996175
  C   -1.456248683  -0.564582589   2.779360054
  C   -2.236323659   0.497704947   2.217229088
  C   -1.668535412   0.790138466   1.023007524
  H   -1.894021899   1.503192218   0.251266512
  H   -3.099243383   0.972867587   2.648748516
  H    0.334494954  -1.532125389   1.857059044
  H   -1.608121880  -1.057901736   3.722685953
  O   -0.591533086  -0.011010957   0.800129551
