12
charge=0 charge_a=0 charge_b=0 selection_a=1-3 selection_b=4-12 scaling=1.10 benchmark_Eint=0.482 benchmark_unit=kcal/mol group=PS contact=S-O
  H   -1.004584200  -0.486313027   1.938960870
  H   -0.430584200   0.925686973   1.990960870
  O   -0.518584200   0.158686973   1.419960870
  C    2.047345283   0.200216499  -2.312560215
  C    2.019354453  -0.142250245  -3.633838400
  C    0.777069547  -0.713660721  -4.023099599
  C   -0.111001409  -0.792897452  -2.990071275
  H   -1.116231644  -1.178895933  -3.002168750
  H    0.554534396  -1.050307869  -5.024684744
  H    2.853876837   0.646865638  -1.757303159
  H    2.852638500   0.006687470  -4.304313049
  S    0.560876106  -0.171628313  -1.535762415
