15
charge=0 charge_a=0 charge_b=0 selection_a=1-6 selection_b=7-15 scaling=1.05 benchmark_Eint=0.951 benchmark_unit=kcal/mol group=PS contact=S-O
  C    0.170692492  -0.415619026  -3.272120308
  H   -0.260307508  -1.293619026  -3.744120308
  H    1.495692492  -1.712619026  -1.751120308
  H    1.036692492  -0.071619026  -3.832120308
  H   -0.574307508   0.376380974  -3.258120308
  S    0.595692492  -0.741619026  -1.528120308
  C   -1.571641550   0.227197120   1.584523007
  C   -1.683252805   0.962524616   2.716404804
  C   -0.472872949   1.722344778   2.819443265
  C    0.274911412   1.386767115   1.741355985
  H    1.244661620   1.688916262   1.390408088
  H   -0.203862270   2.419976949   3.592464357
  H   -2.213633355  -0.481652859   1.095729361
  H   -2.517456125   0.967714849   3.394911165
  O   -0.379972384   0.473054056   0.974737007
