16
charge=0 charge_a=0 charge_b=0 selection_a=1-10 selection_b=11-16 scaling=1.15 benchmark_Eint=0.153 benchmark_unit=kcal/mol group=PS contact=S-O
  C    2.036993965   0.037917158  -2.755313450
  C    1.525993965   0.351917158  -4.132313450
  C    3.506993965  -0.259082842  -2.678313450
  H    1.713993965  -0.493082842  -4.800313450
  H    3.751993965  -1.104082842  -3.329313450
  H    2.072993965   1.200917158  -4.551313450
  H    0.463993965   0.573917158  -4.125313450
  H    3.819993965  -0.485082842  -1.663313450
  H    4.080993965   0.592917158  -3.053313450
  S    1.069993965   0.019917158  -1.447313450
  C   -0.778973906   0.927141534   2.162885121
  H   -0.538978472   0.457187888   3.121065564
  H   -1.496223804  -0.662735419   1.275979343
  H   -1.723487829   1.469186581   2.260345965
  H    0.004425240   1.642428827   1.924937928
  O   -0.811780644  -0.015110705   1.098044552
