9
charge=0 charge_a=0 charge_b=0 selection_a=1-3 selection_b=4-9 scaling=1.05 benchmark_Eint=1.450 benchmark_unit=kcal/mol group=PS contact=S-O
  H   -1.004584200  -0.486313027   1.938960870
  H   -0.430584200   0.925686973   1.990960870
  O   -0.518584200   0.158686973   1.419960870
  C    0.464801153  -1.567701993  -2.729550685
  H    1.451745485  -1.937682257  -2.991246097
  H    1.250345716   0.666416176  -2.351515307
  H   -0.085071802  -1.290132955  -3.625367163
  H   -0.079858634  -2.355445779  -2.214487150
  S    0.568578446  -0.173985232  -1.556852571
