15
charge=0 charge_a=0 charge_b=0 selection_a=1-9 selection_b=10-15 scaling=1.00 benchmark_Eint=2.315 benchmark_unit=kcal/mol group=PS contact=S-O
  C    2.710400666  -1.252991357   1.254353618
  C    3.069400666  -2.471991357   1.753353618
  C    2.004400666  -3.412991357   1.713353618
  C    0.860400666  -2.888991357   1.185353618
  H   -0.089599334  -3.373991357   1.037353618
  H    2.085400666  -4.431991357   2.061353618
  H    3.313400666  -0.365991357   1.165353618
  H    4.055400666  -2.690991357   2.135353618
  S    1.073400666  -1.244991357   0.733353618
  C   -0.249993558   1.587007648  -1.473155098
  H   -0.301405221   2.636654675  -1.169573216
  H   -1.514918608   0.882576665  -0.156910589
  H   -0.876027980   1.442532119  -2.357816460
  H    0.778562198   1.355908674  -1.738928163
  O   -0.608661114   0.705959900  -0.415840836
