9
charge=0 charge_a=0 charge_b=0 selection_a=1-3 selection_b=4-9 scaling=1.00 benchmark_Eint=2.168 benchmark_unit=kcal/mol group=PS contact=S-O
  H   -1.004584200  -0.486313027   1.938960870
  H   -0.430584200   0.925686973   1.990960870
  O   -0.518584200   0.158686973   1.419960870
  C    0.413036897  -1.551862110  -2.587812433
  H    1.399981229  -1.921842374  -2.849507845
  H    1.198581460   0.682256059  -2.209777055
  H   -0.136836058  -1.274293072  -3.483628911
  H   -0.131622890  -2.339605896  -2.072748898
  S    0.516814190  -0.158145349  -1.415114319
