20
charge=0 charge_a=0 charge_b=0 selection_a=1-10 selection_b=11-20 scaling=1.25 benchmark_Eint=0.188 benchmark_unit=kcal/mol group=PS contact=S-O
  C    2.036993965   0.037917158  -2.755313450
  C    1.525993965   0.351917158  -4.132313450
  C    3.506993965  -0.259082842  -2.678313450
  H    1.713993965  -0.493082842  -4.800313450
  H    3.751993965  -1.104082842  -3.329313450
  H    2.072993965   1.200917158  -4.551313450
  H    0.463993965   0.573917158  -4.125313450
  H    3.819993965  -0.485082842  -1.663313450
  H    4.080993965   0.592917158  -3.053313450
  S    1.069993965   0.019917158  -1.447313450
  C   -1.689126911  -0.031441867   2.284775594
  O   -0.970650969  -0.018067961   1.312938436
  C   -2.439160907   1.205000611   2.736912745
  C   -1.886239528  -1.282959733   3.113519008
  H   -2.125312999   1.483735436   3.745586819
  H   -1.612554416  -1.097182950   4.154032558
  H   -3.511213986   1.003825508   2.784228448
  H   -2.248259053   2.028041767   2.055665553
  H   -1.282243977  -2.094119512   2.715218634
  H   -2.938288101  -1.574117431   3.110357466
