13
charge=0 charge_a=0 charge_b=0 selection_a=1-3 selection_b=4-13 scaling=1.25 benchmark_Eint=0.263 benchmark_unit=kcal/mol group=PS contact=S-O
  H   -1.004584200  -0.486313027   1.938960870
  H   -0.430584200   0.925686973   1.990960870
  O   -0.518584200   0.158686973   1.419960870
  C    1.235942457  -0.378198887  -3.384194748
  C    0.321908695  -0.448330603  -4.573929939
  C    2.699767643  -0.477959897  -3.704040906
  H    0.467606655  -1.396102333  -5.099376275
  H    2.904001104  -1.415265019  -4.230917363
  H    0.574492381   0.339788707  -5.288521036
  H   -0.719888685  -0.354762141  -4.285693645
  H    3.312337764  -0.428345755  -2.808738564
  H    2.989338575   0.326231649  -4.386264940
  S    0.680941996  -0.208368523  -1.864520725
