19
charge=0 charge_a=0 charge_b=0 selection_a=1-9 selection_b=10-19 scaling=1.15 benchmark_Eint=-0.073 benchmark_unit=kcal/mol group=PS contact=S-O
  C    2.710400666  -1.252991357   1.254353618
  C    3.069400666  -2.471991357   1.753353618
  C    2.004400666  -3.412991357   1.713353618
  C    0.860400666  -2.888991357   1.185353618
  H   -0.089599334  -3.373991357   1.037353618
  H    2.085400666  -4.431991357   2.061353618
  H    3.313400666  -0.365991357   1.165353618
  H    4.055400666  -2.690991357   2.135353618
  S    1.073400666  -1.244991357   0.733353618
  C   -1.586406236   1.840004497  -1.083842026
  O   -0.865642775   1.004021897  -0.591412210
  C   -1.764744876   1.952881942  -2.584249642
  C   -2.357118186   2.828487108  -0.234800674
  H   -1.432789343   2.935874117  -2.926519867
  H   -2.103341847   3.852008342  -0.517796882
  H   -2.820212106   1.866106539  -2.849705770
  H   -1.193207542   1.179802871  -3.087868373
  H   -2.132172731   2.672936081   0.817167682
  H   -3.429547070   2.711010559  -0.401187422
