13
charge=0 charge_a=0 charge_b=0 selection_a=1-3 selection_b=4-13 scaling=1.00 benchmark_Eint=1.985 benchmark_unit=kcal/mol group=PS contact=S-O
  H   -1.004584200  -0.486313027   1.938960870
  H   -0.430584200   0.925686973   1.990960870
  O   -0.518584200   0.158686973   1.419960870
  C    0.996037217  -0.304787788  -2.727298429
  C    0.082003456  -0.374919503  -3.917033620
  C    2.459862404  -0.404548798  -3.047144587
  H    0.227701416  -1.322691233  -4.442479956
  H    2.664095865  -1.341853920  -3.574021044
  H    0.334587142   0.413199806  -4.631624717
  H   -0.959793925  -0.281351042  -3.628797326
  H    3.072432525  -0.354934655  -2.151842245
  H    2.749433336   0.399642748  -3.729368621
  S    0.441036756  -0.134957424  -1.207624406
