22
charge=0 charge_a=0 charge_b=0 selection_a=1-13 selection_b=14-22 scaling=1.10 benchmark_Eint=0.415 benchmark_unit=kcal/mol group=PS contact=S-P
  C    2.680204605   0.705092983  -1.879184675
  C    2.396204605   2.294092983   0.447815325
  C    3.257204605  -0.394907017   0.664815325
  H    2.095204605   1.395092983  -2.487184675
  H    2.158204605   2.361092983   1.508815325
  H    3.229204605  -1.417907017   0.289815325
  H    2.630204605  -0.274907017  -2.353184675
  H    3.720204605   1.039092983  -1.869184675
  H    1.800204605   3.043092983  -0.073184675
  H    3.454204605   2.525092983   0.307815325
  H    3.055204605  -0.428907017   1.735815325
  H    4.259204605   0.010092983   0.508815325
  P    1.949204605   0.609092983  -0.179184675
  C   -2.682433395  -1.386000844  -0.862424107
  C   -3.907510108  -1.536386110  -0.278973749
  C   -3.979043140  -0.928196008   1.004106071
  C   -2.807834756  -0.329508396   1.367341622
  H   -2.583431499   0.200692891   2.277373915
  H   -4.860448958  -0.935929319   1.627876845
  H   -2.353932644  -1.743225856  -1.823036696
  H   -4.727841600  -2.061066936  -0.745714870
  S   -1.609729228  -0.503012755   0.147977697
