19
charge=0 charge_a=0 charge_b=0 selection_a=1-13 selection_b=14-19 scaling=1.10 benchmark_Eint=0.902 benchmark_unit=kcal/mol group=PS contact=S-P
  C    2.680204605   0.705092983  -1.879184675
  C    2.396204605   2.294092983   0.447815325
  C    3.257204605  -0.394907017   0.664815325
  H    2.095204605   1.395092983  -2.487184675
  H    2.158204605   2.361092983   1.508815325
  H    3.229204605  -1.417907017   0.289815325
  H    2.630204605  -0.274907017  -2.353184675
  H    3.720204605   1.039092983  -1.869184675
  H    1.800204605   3.043092983  -0.073184675
  H    3.454204605   2.525092983   0.307815325
  H    3.055204605  -0.428907017   1.735815325
  H    4.259204605   0.010092983   0.508815325
  P    1.949204605   0.609092983  -0.179184675
  C   -2.534575748  -1.275842183   1.539666530
  H   -2.902220457  -2.263058384   1.275714755
  H   -2.657633007  -0.474407821  -0.717286033
  H   -3.353414606  -0.644341705   1.875228854
  H   -1.814424825  -1.374455364   2.348457658
  S   -1.633523788  -0.510448146   0.150165061
