18
charge=0 charge_a=0 charge_b=0 selection_a=1-10 selection_b=11-18 scaling=1.05 benchmark_Eint=1.241 benchmark_unit=kcal/mol group=PS contact=S-P
  C    2.036993965   0.037917158  -2.755313450
  C    1.525993965   0.351917158  -4.132313450
  C    3.506993965  -0.259082842  -2.678313450
  H    1.713993965  -0.493082842  -4.800313450
  H    3.751993965  -1.104082842  -3.329313450
  H    2.072993965   1.200917158  -4.551313450
  H    0.463993965   0.573917158  -4.125313450
  H    3.819993965  -0.485082842  -1.663313450
  H    4.080993965   0.592917158  -3.053313450
  S    1.069993965   0.019917158  -1.447313450
  C   -0.924080920   1.171652597   2.647976390
  C   -2.101821299  -1.101024458   1.594261248
  H   -1.673752980   0.920896691   3.395625558
  H   -2.304019309  -1.917011702   0.912075216
  H   -2.718496675  -1.066393366   2.484329317
  H   -1.113326295   2.178903918   2.273971090
  H    0.061135774   1.185229722   3.117715390
  P   -0.905295144  -0.016851409   1.224535727
