22
charge=0 charge_a=0 charge_b=0 selection_a=1-13 selection_b=14-22 scaling=1.05 benchmark_Eint=1.242 benchmark_unit=kcal/mol group=PS contact=S-P
  C    2.680204605   0.705092983  -1.879184675
  C    2.396204605   2.294092983   0.447815325
  C    3.257204605  -0.394907017   0.664815325
  H    2.095204605   1.395092983  -2.487184675
  H    2.158204605   2.361092983   1.508815325
  H    3.229204605  -1.417907017   0.289815325
  H    2.630204605  -0.274907017  -2.353184675
  H    3.720204605   1.039092983  -1.869184675
  H    1.800204605   3.043092983  -0.073184675
  H    3.454204605   2.525092983   0.307815325
  H    3.055204605  -0.428907017   1.735815325
  H    4.259204605   0.010092983   0.508815325
  P    1.949204605   0.609092983  -0.179184675
  C   -2.520630396  -1.335440184  -0.877298183
  C   -3.745707109  -1.485825450  -0.293847826
  C   -3.817240141  -0.877635348   0.989231994
  C   -2.646031757  -0.278947736   1.352467546
  H   -2.421628500   0.251253551   2.262499839
  H   -4.698645959  -0.885368659   1.613002769
  H   -2.192129645  -1.692665196  -1.837910772
  H   -4.566038601  -2.010506276  -0.760588946
  S   -1.447926230  -0.452452095   0.133103621
