17
charge=0 charge_a=0 charge_b=0 selection_a=1-9 selection_b=10-17 scaling=1.00 benchmark_Eint=2.601 benchmark_unit=kcal/mol group=PS contact=S-P
  C    2.710400666  -1.252991357   1.254353618
  C    3.069400666  -2.471991357   1.753353618
  C    2.004400666  -3.412991357   1.713353618
  C    0.860400666  -2.888991357   1.185353618
  H   -0.089599334  -3.373991357   1.037353618
  H    2.085400666  -4.431991357   2.061353618
  H    3.313400666  -0.365991357   1.165353618
  H    4.055400666  -2.690991357   2.135353618
  S    1.073400666  -1.244991357   0.733353618
  C   -0.530731382   2.251007733  -2.006456686
  C   -2.491173965   1.428612386  -0.233667986
  H   -1.365583660   2.904344784  -2.251483972
  H   -2.975075655   0.872047503   0.558904841
  H   -3.093973433   2.192727884  -0.709555900
  H   -0.244320769   1.686344916  -2.894923828
  H    0.330267992   2.859268830  -1.723279152
  P   -0.923330308   1.070931191  -0.630824671
