17
charge=0 charge_a=0 charge_b=0 selection_a=1-9 selection_b=10-17 scaling=1.05 benchmark_Eint=1.174 benchmark_unit=kcal/mol group=PS contact=S-P
  C    2.710400666  -1.252991357   1.254353618
  C    3.069400666  -2.471991357   1.753353618
  C    2.004400666  -3.412991357   1.713353618
  C    0.860400666  -2.888991357   1.185353618
  H   -0.089599334  -3.373991357   1.037353618
  H    2.085400666  -4.431991357   2.061353618
  H    3.313400666  -0.365991357   1.165353618
  H    4.055400666  -2.690991357   2.135353618
  S    1.073400666  -1.244991357   0.733353618
  C   -0.630372781   2.366577514  -2.074532272
  C   -2.590815363   1.544182167  -0.301743572
  H   -1.465225059   3.019914565  -2.319559559
  H   -3.074717053   0.987617284   0.490829254
  H   -3.193614831   2.308297665  -0.777631486
  H   -0.343962167   1.801914697  -2.962999415
  H    0.230626593   2.974838611  -1.791354738
  P   -1.022971707   1.186500972  -0.698900258
