13
charge=0 charge_a=0 charge_b=0 selection_a=1-9 selection_b=10-13 scaling=1.05 benchmark_Eint=1.104 benchmark_unit=kcal/mol group=PS contact=S-P
  C    2.710400666  -1.252991357   1.254353618
  C    3.069400666  -2.471991357   1.753353618
  C    2.004400666  -3.412991357   1.713353618
  C    0.860400666  -2.888991357   1.185353618
  H   -0.089599334  -3.373991357   1.037353618
  H    2.085400666  -4.431991357   2.061353618
  H    3.313400666  -0.365991357   1.165353618
  H    4.055400666  -2.690991357   2.135353618
  S    1.073400666  -1.244991357   0.733353618
  H   -1.391108198   1.226418727  -2.095797096
  H   -2.391368291   1.421485464  -0.299088797
  H   -0.746101139   2.604863721  -0.699331095
  P   -1.051899855   1.220053489  -0.718664138
