10
charge=0 charge_a=0 charge_b=0 selection_a=1-4 selection_b=5-10 scaling=1.05 benchmark_Eint=1.310 benchmark_unit=kcal/mol group=PS contact=S-P
  H    2.629997318   0.717791816  -1.389164127
  H    2.351997318   1.939791816   0.252835873
  H    3.016997318   0.000791816   0.508835873
  P    1.939997318   0.644791816  -0.152164127
  C   -2.924499974   0.350075316   0.748413786
  H   -3.335698069  -0.182110807   1.601128895
  H   -2.003361127  -1.638789167  -0.224826315
  H   -3.676729125   0.457787101  -0.029044558
  H   -2.610266007   1.339863034   1.071000654
  S   -1.426513150  -0.474126431   0.111888880
