10
charge=0 charge_a=0 charge_b=0 selection_a=1-4 selection_b=5-10 scaling=1.10 benchmark_Eint=0.627 benchmark_unit=kcal/mol group=PS contact=S-P
  H    2.629997318   0.717791816  -1.389164127
  H    2.351997318   1.939791816   0.252835873
  H    3.016997318   0.000791816   0.508835873
  P    1.939997318   0.644791816  -0.152164127
  C   -3.084809996   0.296793494   0.760987739
  H   -3.496008091  -0.235392629   1.613702848
  H   -2.163671149  -1.692070988  -0.212252363
  H   -3.837039147   0.404505280  -0.016470605
  H   -2.770576030   1.286581212   1.083574607
  S   -1.586823172  -0.527408252   0.124462833
