11
charge=0 charge_a=0 charge_b=0 selection_a=1-3 selection_b=4-11 scaling=1.15 benchmark_Eint=0.195 benchmark_unit=kcal/mol group=PS contact=S-P
  H    0.880172729  -2.754189816   0.122632441
  H    0.117172729  -2.395189816  -1.621367559
  S    0.329172729  -1.699189816  -0.494367559
  C   -0.006999795   2.740002932   2.190598114
  C   -1.075691652   3.137586790  -0.331756696
  H   -0.317338837   3.782366703   2.222745383
  H   -1.392555109   2.926919686  -1.345321653
  H   -1.251696484   4.148021614   0.017174193
  H    1.063804903   2.678193104   2.390112135
  H   -0.512464865   2.190053398   2.986557643
  P   -0.374327913   1.932280899   0.562183802
