10
charge=0 charge_a=0 charge_b=0 selection_a=1-4 selection_b=5-10 scaling=1.15 benchmark_Eint=0.257 benchmark_unit=kcal/mol group=PS contact=S-P
  H    2.629997318   0.717791816  -1.389164127
  H    2.351997318   1.939791816   0.252835873
  H    3.016997318   0.000791816   0.508835873
  P    1.939997318   0.644791816  -0.152164127
  C   -3.245120019   0.243511673   0.773561691
  H   -3.656318113  -0.288674450   1.626276800
  H   -2.323981171  -1.745352809  -0.199678410
  H   -3.997349169   0.351223458  -0.003896652
  H   -2.930886052   1.233299391   1.096148560
  S   -1.747133194  -0.580690073   0.137036786
