11
charge=0 charge_a=0 charge_b=0 selection_a=1-3 selection_b=4-11 scaling=1.05 benchmark_Eint=1.368 benchmark_unit=kcal/mol group=PS contact=S-P
  H    0.880172729  -2.754189816   0.122632441
  H    0.117172729  -2.395189816  -1.621367559
  S    0.329172729  -1.699189816  -0.494367559
  C    0.054183358   2.424175465   2.098710291
  C   -1.014508500   2.821759323  -0.423644520
  H   -0.256155685   3.466539236   2.130857559
  H   -1.331371957   2.611092219  -1.437209476
  H   -1.190513332   3.832194147  -0.074713630
  H    1.124988055   2.362365637   2.298224311
  H   -0.451281713   1.874225930   2.894669820
  P   -0.313144760   1.616453432   0.470295979
