19
charge=0 charge_a=0 charge_b=0 selection_a=1-9 selection_b=10-19 scaling=1.10 benchmark_Eint=-0.002 benchmark_unit=kcal/mol group=PS contact=S-S
  C    2.710400666  -1.252991357   1.254353618
  C    3.069400666  -2.471991357   1.753353618
  C    2.004400666  -3.412991357   1.713353618
  C    0.860400666  -2.888991357   1.185353618
  H   -0.089599334  -3.373991357   1.037353618
  H    2.085400666  -4.431991357   2.061353618
  H    3.313400666  -0.365991357   1.165353618
  H    4.055400666  -2.690991357   2.135353618
  S    1.073400666  -1.244991357   0.733353618
  C   -1.894920798   2.197837295  -1.294620981
  C   -2.426661612   2.081442557  -2.694460247
  C   -2.325631316   3.431496470  -0.554613217
  H   -2.098796395   2.938411449  -3.289188519
  H   -2.018279117   4.324916267  -1.107050265
  H   -3.519512020   2.115519098  -2.685091432
  H   -2.097555210   1.165470226  -3.173898111
  H   -1.907871254   3.467186283   0.447121661
  H   -3.416895523   3.469404789  -0.493700232
  S   -0.924842014   1.072684554  -0.631857478
