18
charge=0 charge_a=0 charge_b=0 selection_a=1-9 selection_b=10-18 scaling=1.25 benchmark_Eint=-0.792 benchmark_unit=kcal/mol group=PS contact=S-S
  C    2.710400666  -1.252991357   1.254353618
  C    3.069400666  -2.471991357   1.753353618
  C    2.004400666  -3.412991357   1.713353618
  C    0.860400666  -2.888991357   1.185353618
  H   -0.089599334  -3.373991357   1.037353618
  H    2.085400666  -4.431991357   2.061353618
  H    3.313400666  -0.365991357   1.165353618
  H    4.055400666  -2.690991357   2.135353618
  S    1.073400666  -1.244991357   0.733353618
  C   -2.338346481   2.636996812  -0.220735455
  C   -2.934792351   3.360864819  -1.212758858
  C   -2.513772694   2.959010255  -2.509894686
  C   -1.607393934   1.939512575  -2.475282219
  H   -1.127116312   1.445027957  -3.302595563
  H   -2.868345090   3.407545729  -3.425929808
  H   -2.471796060   2.729122856   0.843220842
  H   -3.646968456   4.150853782  -1.026201533
  S   -1.260816422   1.462366848  -0.861397160
