6
charge=0 charge_a=0 charge_b=0 selection_a=1-3 selection_b=4-6 scaling=1.25 benchmark_Eint=-0.169 benchmark_unit=kcal/mol group=PS contact=S-S
  H    0.880172729  -2.754189816   0.122632441
  H    0.117172729  -2.395189816  -1.621367559
  S    0.329172729  -1.699189816  -0.494367559
  H   -0.958185179   3.156898253  -0.005467887
  H   -0.195188154   2.797897352   1.738533229
  S   -0.407186666   2.101897802   0.611532670
