7
charge=0 charge_a=0 charge_b=0 selection_a=1-3 selection_b=4-7 scaling=1.00 benchmark_Eint=2.117 benchmark_unit=kcal/mol group=Halogens contact=F-H
  C   -1.264834377   0.000000000  -1.400000000
  F    0.000000000   0.000000000  -1.400000000
  N   -2.415469611   0.000745701  -1.400000000
  B    0.000000001  -0.000000000   1.839732096
  H   -0.000000000   0.000000000   0.652380000
  H    0.834416191   0.602343649   2.433437200
  H   -0.833123499  -0.602343911   2.433952633
