8
charge=0 charge_a=0 charge_b=0 selection_a=1-5 selection_b=6-8 scaling=1.05 benchmark_Eint=1.172 benchmark_unit=kcal/mol group=Halogens contact=F-H
  C   -1.485547661  -1.164488879   0.027767246
  H   -0.629547661  -0.493488879   0.011767246
  H   -1.452547661  -1.772488879   0.929767246
  H   -2.403547661  -0.582488879   0.016767246
  H   -1.455547661  -1.811488879  -0.846232754
  C    0.323062305   1.716821735  -0.541880997
  F    1.039729440   0.815021559  -0.019434195
  N   -0.329080696   2.537448940  -1.016478188
