15
charge=0 charge_a=0 charge_b=0 selection_a=1-3 selection_b=4-15 scaling=1.10 benchmark_Eint=-1.123 benchmark_unit=kcal/mol group=Halogens contact=F-C
  C   -1.264834377   0.000000000  -1.400000000
  F    0.000000000   0.000000000  -1.400000000
  N   -2.415469611   0.000745701  -1.400000000
  C   -0.000000000   0.000000000   1.414800000
  C    0.695990796  -1.205318137   1.414800000
  C    2.086729317  -1.204713144   1.414800000
  C    2.781351787  -0.000116780   1.414326714
  C    2.086215653   1.204189871   1.414823148
  C    0.694854871   1.204250189   1.415235643
  H   -1.081855209  -0.000473127   1.415086895
  H    0.154516160  -2.141470451   1.414543666
  H    2.626984635  -2.141719097   1.413783485
  H    3.863206996   0.000356347   1.414039818
  H    2.626835627   2.141353670   1.414583048
  H    0.152872119   2.140279406   1.415221645
