9
charge=0 charge_a=0 charge_b=0 selection_a=1-5 selection_b=6-9 scaling=1.10 benchmark_Eint=0.733 benchmark_unit=kcal/mol group=Halogens contact=F-C
  C   -1.390184880   0.000000000  -1.400000000
  F    0.000000000   0.000000000  -1.400000000
  H   -1.739965695   1.031113661  -1.400000000
  H   -1.740592230  -0.515759599  -2.292799935
  H   -1.740294428  -0.515136811  -0.506383544
  C    0.000000000   0.000000000   1.779050000
  C    1.195880727  -0.000536203   1.779050000
  H   -1.061446458   0.001190023   1.779050000
  H    2.257300036  -0.000732417   1.779157731
