6
charge=0 charge_a=0 charge_b=0 selection_a=1-3 selection_b=4-6 scaling=1.00 benchmark_Eint=1.716 benchmark_unit=kcal/mol group=Halogens contact=F-N
  C   -2.735331436  -0.059932766   0.222949889
  H   -3.797331436  -0.083932766   0.308949889
  N   -1.594331436  -0.034932766   0.129949889
  C    0.835263356   1.022406916   0.702133169
  F    0.794774221   0.017413984  -0.064780020
  N    0.872154809   1.936208742   1.400393322
