10
charge=0 charge_a=0 charge_b=0 selection_a=1-7 selection_b=8-10 scaling=1.15 benchmark_Eint=-2.407 benchmark_unit=kcal/mol group=Halogens contact=F-N
  N    0.907607368  -0.903143900  -0.959468583
  C    2.253607368  -0.330143900  -0.922468583
  H    0.540607368  -0.905143900  -1.901468583
  H    2.615607368  -0.329143900   0.105531417
  H    2.209607368   0.708856100  -1.249468583
  H    2.996607368  -0.847143900  -1.541468583
  H    0.914607368  -1.864143900  -0.645468583
  C   -1.663442098  -0.069508908   0.441811488
  F   -0.663290810   0.660028851   0.701191634
  N   -2.573120299  -0.733618632   0.206427031
