6
charge=0 charge_a=0 charge_b=0 selection_a=1-3 selection_b=4-6 scaling=1.00 benchmark_Eint=1.308 benchmark_unit=kcal/mol group=Halogens contact=F-O
  H   -1.004584200  -0.486313027   1.938960870
  H   -0.430584200   0.925686973   1.990960870
  O   -0.518584200   0.158686973   1.419960870
  C   -0.206237486  -1.253623550  -0.781204524
  F    0.269631031  -0.082507204  -0.738289971
  N   -0.639783235  -2.318731628  -0.820509268
