6
charge=0 charge_a=0 charge_b=0 selection_a=1-3 selection_b=4-6 scaling=1.10 benchmark_Eint=-1.772 benchmark_unit=kcal/mol group=Halogens contact=F-O
  H   -1.004584200  -0.486313027   1.938960870
  H   -0.430584200   0.925686973   1.990960870
  O   -0.518584200   0.158686973   1.419960870
  C   -0.127435887  -1.277736871  -0.996975051
  F    0.348432630  -0.106620524  -0.954060498
  N   -0.560981636  -2.342844949  -1.036279795
