6
charge=0 charge_a=0 charge_b=0 selection_a=1-3 selection_b=4-6 scaling=1.05 benchmark_Eint=-0.677 benchmark_unit=kcal/mol group=Halogens contact=F-O
  H   -1.004584200  -0.486313027   1.938960870
  H   -0.430584200   0.925686973   1.990960870
  O   -0.518584200   0.158686973   1.419960870
  C   -0.166886498  -1.265664968  -0.888953397
  F    0.308982019  -0.094548622  -0.846038843
  N   -0.600432247  -2.330773046  -0.928258141
