13
charge=0 charge_a=0 charge_b=0 selection_a=1-5 selection_b=6-13 scaling=1.05 benchmark_Eint=1.177 benchmark_unit=kcal/mol group=Halogens contact=F-P
  C   -1.390184880   0.000000000  -1.400000000
  F    0.000000000   0.000000000  -1.400000000
  H   -1.739965695   1.031113661  -1.400000000
  H   -1.740592230  -0.515759599  -2.292799935
  H   -1.740294428  -0.515136811  -0.506383544
  C    1.460702493   0.000906141   2.886192146
  C   -1.304719703  -0.000809378   2.764183405
  H    1.173931423  -0.005116698   3.935759713
  H   -2.302861516  -0.001160621   2.344886615
  H   -1.247475499  -0.001599776   3.846048220
  H    2.073627094   0.881146148   2.686818214
  H    2.080154893  -0.873429350   2.678088389
  P   -0.000000000   0.000000000   1.743640000
