11
charge=0 charge_a=0 charge_b=0 selection_a=1-3 selection_b=4-11 scaling=1.05 benchmark_Eint=0.424 benchmark_unit=kcal/mol group=Halogens contact=F-P
  C   -1.264834377   0.000000000  -1.400000000
  F    0.000000000   0.000000000  -1.400000000
  N   -2.415469611   0.000745701  -1.400000000
  C    1.460702626   0.000658175   2.652282146
  C   -1.304719822  -0.000587892   2.530273405
  H    1.173930537  -0.005315982   3.701849713
  H   -2.302861680  -0.000769692   2.110976615
  H   -1.247475753  -0.001388007   3.612138220
  H    2.073776645   0.880794121   2.452908214
  H    2.080006592  -0.873782460   2.444178389
  P   -0.000000000   0.000000000   1.509730000
