9
charge=0 charge_a=0 charge_b=0 selection_a=1-4 selection_b=5-9 scaling=1.15 benchmark_Eint=0.128 benchmark_unit=kcal/mol group=Halogens contact=F-P
  H    2.629997318   0.717791816  -1.389164127
  H    2.351997318   1.939791816   0.252835873
  H    3.016997318   0.000791816   0.508835873
  P    1.939997318   0.644791816  -0.152164127
  C   -1.756994405   0.758429927   0.664474794
  F   -1.394418023  -0.463459058   0.109371492
  H   -2.044992827   1.435537202  -0.138098970
  H   -2.594852691   0.600694083   1.341968628
  H   -0.904336306   1.162541792   1.208681342
