7
charge=0 charge_a=0 charge_b=0 selection_a=1-4 selection_b=5-7 scaling=1.15 benchmark_Eint=-1.119 benchmark_unit=kcal/mol group=Halogens contact=F-P
  H    2.629997318   0.717791816  -1.389164127
  H    2.351997318   1.939791816   0.252835873
  H    3.016997318   0.000791816   0.508835873
  P    1.939997318   0.644791816  -0.152164127
  C   -1.476783143   0.730430790   0.595207370
  F   -1.146940609  -0.381205640   0.089960545
  N   -1.776987250   1.741967442   1.054155180
