11
charge=0 charge_a=0 charge_b=0 selection_a=1-3 selection_b=4-11 scaling=1.00 benchmark_Eint=2.510 benchmark_unit=kcal/mol group=Halogens contact=F-P
  C   -1.264834377   0.000000000  -1.400000000
  F    0.000000000   0.000000000  -1.400000000
  N   -2.415469611   0.000745701  -1.400000000
  C    1.460702626   0.000658175   2.513937146
  C   -1.304719822  -0.000587892   2.391928405
  H    1.173930537  -0.005315982   3.563504713
  H   -2.302861680  -0.000769692   1.972631615
  H   -1.247475753  -0.001388007   3.473793220
  H    2.073776645   0.880794121   2.314563214
  H    2.080006592  -0.873782460   2.305833389
  P   -0.000000000   0.000000000   1.371385000
