8
charge=0 charge_a=0 charge_b=0 selection_a=1-5 selection_b=6-8 scaling=1.10 benchmark_Eint=0.116 benchmark_unit=kcal/mol group=Halogens contact=F-S
  C   -1.390184880   0.000000000  -1.400000000
  F    0.000000000   0.000000000  -1.400000000
  H   -1.739965695   1.031113661  -1.400000000
  H   -1.740592230  -0.515759599  -2.292799935
  H   -1.740294428  -0.515136811  -0.506383544
  H   -0.968286872   0.000032645   2.633459248
  H    0.968872307  -0.000032665   2.634019851
  S   -0.000000000   0.000000000   1.706240000
