11
charge=0 charge_a=0 charge_b=0 selection_a=1-5 selection_b=6-11 scaling=1.00 benchmark_Eint=1.943 benchmark_unit=kcal/mol group=Halogens contact=F-S
  C   -1.390184880   0.000000000  -1.400000000
  F    0.000000000   0.000000000  -1.400000000
  H   -1.739965695   1.031113661  -1.400000000
  H   -1.740592230  -0.515759599  -2.292799935
  H   -1.740294428  -0.515136811  -0.506383544
  C    1.369281705  -0.000396292   2.634093725
  H    1.349199391  -0.891941261   3.253910851
  H   -1.007670871   0.000291637   2.315705637
  H    1.349762165   0.892221420   3.254371573
  H    2.286099286  -0.000351204   2.049345470
  S   -0.000000000  -0.000000000   1.428480000
