6
charge=0 charge_a=0 charge_b=0 selection_a=1-3 selection_b=4-6 scaling=1.00 benchmark_Eint=1.953 benchmark_unit=kcal/mol group=Halogens contact=F-S
  H    0.880172729  -2.754189816   0.122632441
  H    0.117172729  -2.395189816  -1.621367559
  S    0.329172729  -1.699189816  -0.494367559
  C    0.331827028   0.623083512   1.388301553
  F   -0.166195653   0.857902058   0.249600688
  N    0.785556087   0.409669633   2.423939740
