10
charge=0 charge_a=0 charge_b=0 selection_a=1-5 selection_b=6-10 scaling=1.25 benchmark_Eint=-1.774 benchmark_unit=kcal/mol group=Halogens contact=F-F
  C   -1.390184880   0.000000000  -1.400000000
  F    0.000000000   0.000000000  -1.400000000
  H   -1.739965695   1.031113661  -1.400000000
  H   -1.740592230  -0.515759599  -2.292799935
  H   -1.740294428  -0.515136811  -0.506383544
  C    1.390184877  -0.000091368   1.612240000
  F   -0.000000000   0.000000000   1.612240000
  H    1.740033460   1.030999302   1.612240000
  H    1.740558329  -0.515873996   2.505039935
  H    1.740260568  -0.515251189   0.718623544
