6
charge=0 charge_a=0 charge_b=0 selection_a=1-3 selection_b=4-6 scaling=1.15 benchmark_Eint=-0.081 benchmark_unit=kcal/mol group=Halogens contact=F-F
  C   -1.264834377   0.000000000  -1.400000000
  F    0.000000000   0.000000000  -1.400000000
  N   -2.415469611   0.000745701  -1.400000000
  C    1.264834273  -0.000512560   1.439200000
  F    0.000000000   0.000000000   1.439200000
  N    2.415469715  -0.000233141   1.439200000
