5
charge=0 charge_a=0 charge_b=0 selection_a=1-2 selection_b=3-5 scaling=1.05 benchmark_Eint=1.856 benchmark_unit=kcal/mol group=Halogens contact=Cl-H
  F    0.655496934  -0.274524357   1.568710612
  H    0.304496934  -0.127524357   0.728710612
  C   -1.965453983  -0.300267968  -0.692566789
 Cl   -0.506637223   0.212181401  -1.212465151
  N   -2.995849116  -0.661548620  -0.325232937
