7
charge=0 charge_a=0 charge_b=0 selection_a=1-4 selection_b=5-7 scaling=1.25 benchmark_Eint=0.061 benchmark_unit=kcal/mol group=Halogens contact=Cl-H
  C    0.052610641  -1.106577151  -1.495895895
  C    0.085610641  -1.817577151  -2.456895895
  H    0.022610641  -0.475577151  -0.642895895
  H    0.114610641  -2.448577151  -3.309895895
  C    1.569673197   1.320628414   1.603069215
 Cl   -0.057345390   1.206164716   1.630520606
  N    2.718655490   1.401994454   1.583289024
