5
charge=0 charge_a=0 charge_b=0 selection_a=1-2 selection_b=3-5 scaling=1.15 benchmark_Eint=0.785 benchmark_unit=kcal/mol group=Halogens contact=Cl-H
  F    0.655496934  -0.274524357   1.568710612
  H    0.304496934  -0.127524357   0.728710612
  C   -2.042737588  -0.267901330  -0.877519007
 Cl   -0.583920829   0.244548040  -1.397417370
  N   -3.073132721  -0.629181982  -0.510185155
