5
charge=0 charge_a=0 charge_b=0 selection_a=1-2 selection_b=3-5 scaling=1.10 benchmark_Eint=1.186 benchmark_unit=kcal/mol group=Halogens contact=Cl-H
  F    0.655496934  -0.274524357   1.568710612
  H    0.304496934  -0.127524357   0.728710612
  C   -2.004046685  -0.284105212  -0.784925393
 Cl   -0.545229926   0.228344157  -1.304823756
  N   -3.034441818  -0.645385864  -0.417591541
