7
charge=0 charge_a=0 charge_b=0 selection_a=1-4 selection_b=5-7 scaling=1.00 benchmark_Eint=2.538 benchmark_unit=kcal/mol group=Halogens contact=Cl-H
  C    0.052610641  -1.106577151  -1.495895895
  C    0.085610641  -1.817577151  -2.456895895
  H    0.022610641  -0.475577151  -0.642895895
  H    0.114610641  -2.448577151  -3.309895895
  C    1.585664403   0.984280041   1.148385915
 Cl   -0.041354184   0.869816342   1.175837306
  N    2.734646696   1.065646081   1.128605724
