8
charge=0 charge_a=0 charge_b=0 selection_a=1-5 selection_b=6-8 scaling=1.15 benchmark_Eint=-0.602 benchmark_unit=kcal/mol group=Halogens contact=Cl-C
  C   -1.700000000   0.000000000   0.000000000
  H   -2.787765140   0.000000000  -0.000000000
  H   -1.337649723   1.026186765   0.000000000
  H   -1.336769018  -0.512274047   0.887247178
  H   -1.337354622  -0.511979565  -0.888678938
  C    1.689581296   1.310168833  -0.970660592
 Cl    1.688894256  -0.000571607   0.000423352
  N    1.690066496   2.236228272  -1.655923811
