12
charge=0 charge_a=0 charge_b=0 selection_a=1-5 selection_b=6-12 scaling=1.00 benchmark_Eint=2.346 benchmark_unit=kcal/mol group=Halogens contact=Cl-N
  C   -1.795495753   0.000000000  -1.780000000
 Cl    0.000000000   0.000000000  -1.780000000
  H   -2.135682022   1.030042379  -1.780000000
  H   -2.136211680  -0.513776802  -2.671221664
  H   -2.136028444  -0.513679394  -0.888486138
  N   -0.000000000  -0.000000000   1.311010000
  C    1.402417468  -0.000150241   1.728908578
  H   -0.484621843  -0.811882856   1.668843618
  H    1.900152329   0.877694375   1.317231716
  H    1.899748097  -0.876811643   1.313561697
  H    1.564798185  -0.002707512   2.813401530
  H   -0.484271845   0.812029947   1.669135878
