12
charge=0 charge_a=0 charge_b=0 selection_a=1-7 selection_b=8-12 scaling=1.10 benchmark_Eint=-3.302 benchmark_unit=kcal/mol group=Halogens contact=Cl-N
  C   -1.498059411  -0.000000000  -1.600000000
  H   -1.808519061   0.012758830  -2.641457161
  H   -1.835724257   0.896679702  -1.094215496
  H   -1.834939241  -0.909253068  -1.116129316
  N    0.000000000   0.000000000  -1.600000000
  O    0.555879823  -1.083121416  -1.626657474
  O    0.555981287   1.083622540  -1.600000000
  C    1.795495585  -0.000776219   1.369668000
 Cl    0.000000000  -0.000000000   1.369668000
  H    2.136127125   1.029118997   1.369668000
  H    2.135989367  -0.514700269   2.260889664
  H    2.135806173  -0.514602782   0.478154138
