16
charge=0 charge_a=0 charge_b=0 selection_a=1-11 selection_b=12-16 scaling=1.00 benchmark_Eint=2.330 benchmark_unit=kcal/mol group=Halogens contact=Cl-N
  C   -0.175446694  -2.007467188   1.577808032
  C   -0.829446694  -2.993467188   2.306808032
  C   -2.215446694  -3.053467188   2.245808032
  C   -2.885446694  -2.126467188   1.458808032
  C   -2.138446694  -1.179467188   0.767808032
  N   -0.807446694  -1.112467188   0.818808032
  H    0.906553306  -1.933467188   1.603808032
  H   -0.263446694  -3.693467188   2.905808032
  H   -2.760446694  -3.806467188   2.798808032
  H   -3.963446694  -2.133467188   1.379808032
  H   -2.630446694  -0.441467188   0.144808032
  C    0.312645622   2.192566857   0.541458489
 Cl    0.709118863   0.976995105  -0.719096660
  H    1.097205242   2.174331104   1.290356119
  H    0.258368581   3.166867499   0.070160003
  H   -0.641174602   1.927198206   0.982403450
