10
charge=0 charge_a=0 charge_b=0 selection_a=1-7 selection_b=8-10 scaling=1.05 benchmark_Eint=0.223 benchmark_unit=kcal/mol group=Halogens contact=Cl-N
  N    0.907607368  -0.903143900  -0.959468583
  C    2.253607368  -0.330143900  -0.922468583
  H    0.540607368  -0.905143900  -1.901468583
  H    2.615607368  -0.329143900   0.105531417
  H    2.209607368   0.708856100  -1.249468583
  H    2.996607368  -0.847143900  -1.541468583
  H    0.914607368  -1.864143900  -0.645468583
  C   -2.048047184  -0.186511559   0.467023591
 Cl   -0.758160739   0.754432225   0.801482486
  N   -2.958833084  -0.851411574   0.231335206
