8
charge=0 charge_a=0 charge_b=0 selection_a=1-3 selection_b=4-8 scaling=1.15 benchmark_Eint=0.597 benchmark_unit=kcal/mol group=Halogens contact=Cl-O
  H   -1.004584200  -0.486313027   1.938960870
  H   -0.430584200   0.925686973   1.990960870
  O   -0.518584200   0.158686973   1.419960870
  C   -0.012212255  -1.865450604  -1.876603806
 Cl    0.663132722  -0.202918879  -1.815756279
  H   -1.027514472  -1.806601435  -2.253979194
  H    0.606296271  -2.460447989  -2.538234606
  H   -0.001941404  -2.274126585  -0.872858593
