13
charge=0 charge_a=0 charge_b=0 selection_a=1-3 selection_b=4-13 scaling=1.05 benchmark_Eint=-0.319 benchmark_unit=kcal/mol group=Halogens contact=Cl-O
  C   -1.631270977   0.000000000  -1.780000000
 Cl    0.000000000   0.000000000  -1.780000000
  N   -2.783300300   0.000661594  -1.780000000
  C   -0.000000000  -0.000000000   2.166667933
  O    0.000000000   0.000000000   0.958010000
  C    0.833384076   0.983908183   2.962384383
  C   -0.831375408  -0.982325295   2.964049866
  H    1.553308236   0.446133462   3.583773595
  H   -0.195025896  -1.561724878   3.635943028
  H    0.199334135   1.559167989   3.639927613
  H    1.360737058   1.655074490   2.292031774
  H   -1.362625372  -1.653052352   2.293727042
  H   -1.547797113  -0.447183088   3.590110374
