6
charge=0 charge_a=0 charge_b=0 selection_a=1-3 selection_b=4-6 scaling=1.15 benchmark_Eint=-1.339 benchmark_unit=kcal/mol group=Halogens contact=Cl-O
  H   -1.004584200  -0.486313027   1.938960870
  H   -0.430584200   0.925686973   1.990960870
  O   -0.518584200   0.158686973   1.419960870
  C   -0.080149794  -1.673669881  -1.516611095
 Cl    0.533657259  -0.163299335  -1.461233154
  N   -0.514199927  -2.740077190  -1.555954850
