11
charge=0 charge_a=0 charge_b=0 selection_a=1-3 selection_b=4-11 scaling=1.10 benchmark_Eint=-0.450 benchmark_unit=kcal/mol group=Halogens contact=Cl-P
  C   -1.631270977   0.000000000  -1.780000000
 Cl    0.000000000   0.000000000  -1.780000000
  N   -2.783300300   0.000661594  -1.780000000
  C    1.460702589   0.000735232   2.870832146
  C   -1.304719789  -0.000656720   2.748823405
  H    1.173930816  -0.005254053   3.920399713
  H   -2.302861636  -0.000891176   2.329526615
  H   -1.247475678  -0.001453816   3.830688220
  H    2.073730177   0.880903519   2.671458214
  H    2.080052684  -0.873672731   2.662728389
  P   -0.000000000   0.000000000   1.728280000
