6
charge=0 charge_a=0 charge_b=0 selection_a=1-3 selection_b=4-6 scaling=1.10 benchmark_Eint=-0.330 benchmark_unit=kcal/mol group=Halogens contact=Cl-S
  H    0.880172729  -2.754189816   0.122632441
  H    0.117172729  -2.395189816  -1.621367559
  S    0.329172729  -1.699189816  -0.494367559
  C    0.354839567   1.181474325   1.900412658
 Cl   -0.287543351   1.484298944   0.431846542
  N    0.809096507   0.967795273   2.937313759
