6
charge=0 charge_a=0 charge_b=0 selection_a=1-3 selection_b=4-6 scaling=1.00 benchmark_Eint=2.206 benchmark_unit=kcal/mol group=Halogens contact=Cl-S
  H    0.880172729  -2.754189816   0.122632441
  H    0.117172729  -2.395189816  -1.621367559
  S    0.329172729  -1.699189816  -0.494367559
  C    0.410880858   0.892189147   1.816247130
 Cl   -0.231502060   1.195013766   0.347681014
  N    0.865137799   0.678510095   2.853148231
