11
charge=0 charge_a=0 charge_b=0 selection_a=1-5 selection_b=6-11 scaling=1.15 benchmark_Eint=-0.215 benchmark_unit=kcal/mol group=Halogens contact=Cl-S
  C   -1.795495753   0.000000000  -1.780000000
 Cl    0.000000000   0.000000000  -1.780000000
  H   -2.135682022   1.030042379  -1.780000000
  H   -2.136211680  -0.513776802  -2.671221664
  H   -2.136028444  -0.513679394  -0.888486138
  C    1.369281539  -0.000782970   3.053227725
  H    1.348947457  -0.892322233   3.673044851
  H   -1.007670749   0.000576198   2.734839637
  H    1.350014070   0.891840218   3.673505573
  H    2.286099096  -0.000996787   2.468479470
  S   -0.000000000  -0.000000000   1.847614000
