7
charge=0 charge_a=0 charge_b=0 selection_a=1-5 selection_b=6-7 scaling=1.25 benchmark_Eint=-4.122 benchmark_unit=kcal/mol group=Halogens contact=Br-H
  C   -1.959087032  -0.000000000  -1.900000000
 Br    0.000000000   0.000000000  -1.900000000
  H   -2.287525223   1.032053465  -1.900000000
  H   -2.286919328  -0.515739411  -2.793038547
  H   -2.287199561  -0.516456466  -1.005932392
  F    0.000000000  -0.000000000   1.326086773
  H    0.000000000  -0.000000000   0.403910000
