7
charge=0 charge_a=0 charge_b=0 selection_a=1-4 selection_b=5-7 scaling=1.05 benchmark_Eint=1.421 benchmark_unit=kcal/mol group=Halogens contact=Br-H
  C    0.052610641  -1.106577151  -1.495895895
  C    0.085610641  -1.817577151  -2.456895895
  H    0.022610641  -0.475577151  -0.642895895
  H    0.114610641  -2.448577151  -3.309895895
  C    1.741193614   1.126982142   1.323079761
 Br   -0.047595399   1.001089903   1.353295860
  N    2.890180578   1.208292285   1.303341084
