10
charge=0 charge_a=0 charge_b=0 selection_a=1-5 selection_b=6-10 scaling=1.00 benchmark_Eint=2.320 benchmark_unit=kcal/mol group=Halogens contact=Br-H
  C   -1.959087032  -0.000000000  -1.900000000
 Br    0.000000000   0.000000000  -1.900000000
  H   -2.287525223   1.032053465  -1.900000000
  H   -2.286919328  -0.515739411  -2.793038547
  H   -2.287199561  -0.516456466  -1.005932392
  C    0.000000000  -0.000000000   1.569165140
  H   -0.000000000  -0.000000000   0.481400000
  H    0.824631731   0.610771467   1.931515417
  H   -0.939734098   0.408083420   1.932396122
  H    0.117507990  -1.018854849   1.931810517
