8
charge=0 charge_a=0 charge_b=0 selection_a=1-5 selection_b=6-8 scaling=1.25 benchmark_Eint=-0.347 benchmark_unit=kcal/mol group=Halogens contact=Br-H
  C   -1.485547661  -1.164488879   0.027767246
  H   -0.629547661  -0.493488879   0.011767246
  H   -1.452547661  -1.772488879   0.929767246
  H   -2.403547661  -0.582488879   0.016767246
  H   -1.455547661  -1.811488879  -0.846232754
  C    0.733271472   2.650155583  -0.773362859
 Br    1.749505082   1.371399427  -0.032701030
  N    0.080361313   3.471745704  -1.248620680
