10
charge=0 charge_a=0 charge_b=0 selection_a=1-5 selection_b=6-10 scaling=1.15 benchmark_Eint=-0.469 benchmark_unit=kcal/mol group=Halogens contact=Br-C
  C   -1.959087032  -0.000000000  -1.900000000
 Br    0.000000000   0.000000000  -1.900000000
  H   -2.287525223   1.032053465  -1.900000000
  H   -2.286919328  -0.515739411  -2.793038547
  H   -2.287199561  -0.516456466  -1.005932392
  C    0.000715987   0.000000012   1.692678374
  H    0.001174120   0.000000019   2.780443417
  H   -0.824088030   0.610744811   1.330675442
  H    0.940283825   0.408113816   1.329051640
  H   -0.116911782  -1.018858638   1.330082512
