15
charge=0 charge_a=0 charge_b=0 selection_a=1-3 selection_b=4-15 scaling=1.15 benchmark_Eint=-1.987 benchmark_unit=kcal/mol group=Halogens contact=Br-C
  C   -1.793468149  -0.000000000  -1.900000000
 Br    0.000000000   0.000000000  -1.900000000
  N   -2.945497529   0.000553783  -1.900000000
  C   -0.000000000  -0.000000000   1.505960000
  C    0.696094164  -1.205258443   1.505960000
  C    2.086832628  -1.204534177   1.505960000
  C    2.781351787   0.000121754   1.505486714
  C    2.086112372   1.204368785   1.505983148
  C    0.694751589   1.204309777   1.506395643
  H   -1.081855165  -0.000565909   1.506246895
  H    0.154699817  -2.141457191   1.505703666
  H    2.627168304  -2.141493794   1.504943485
  H    3.863206951   0.000687663   1.505199818
  H    2.626651970   2.141578945   1.505743048
  H    0.152688563   2.140292509   1.506381645
