17
charge=0 charge_a=0 charge_b=0 selection_a=1-5 selection_b=6-17 scaling=1.00 benchmark_Eint=2.310 benchmark_unit=kcal/mol group=Halogens contact=Br-C
  C   -1.959087032  -0.000000000  -1.900000000
 Br    0.000000000   0.000000000  -1.900000000
  H   -2.287525223   1.032053465  -1.900000000
  H   -2.286919328  -0.515739411  -2.793038547
  H   -2.287199561  -0.516456466  -1.005932392
  C    0.000000000   0.000000000   1.209680000
  C    0.696254460  -1.205165850   1.209680000
  C    2.086992816  -1.204256613   1.209680000
  C    2.781351746   0.000491681   1.209206714
  C    2.085952169   1.204646232   1.209703148
  C    0.694591407   1.204402170   1.210115643
  H   -1.081855080  -0.000709799   1.209966895
  H    0.154984634  -2.141436597   1.209423666
  H    2.627453104  -2.141144355   1.208663485
  H    3.863206826   0.001201479   1.208919818
  H    2.626367111   2.141928278   1.209463048
  H    0.152403898   2.140312798   1.210101645
