6
charge=0 charge_a=0 charge_b=0 selection_a=1-3 selection_b=4-6 scaling=1.25 benchmark_Eint=-1.336 benchmark_unit=kcal/mol group=Halogens contact=Br-N
  C   -2.735331436  -0.059932766   0.222949889
  H   -3.797331436  -0.083932766   0.308949889
  N   -1.594331436  -0.034932766   0.129949889
  C    2.101705072   1.469724855   0.920939762
 Br    2.044281661   0.044791448  -0.166624184
  N    2.138633910   2.384690882   1.619971543
