9
charge=0 charge_a=0 charge_b=0 selection_a=1-5 selection_b=6-9 scaling=1.25 benchmark_Eint=0.359 benchmark_unit=kcal/mol group=Halogens contact=Br-N
  C   -1.959087032  -0.000000000  -1.900000000
 Br    0.000000000   0.000000000  -1.900000000
  H   -2.287525223   1.032053465  -1.900000000
  H   -2.286919328  -0.515739411  -2.793038547
  H   -2.287199561  -0.516456466  -1.005932392
  N    0.000000000   0.000000000   2.219850000
  H    0.912418682   0.232632411   2.593036697
  H   -0.254368134  -0.905644551   2.592745159
  H   -0.656968186   0.673012157   2.592303271
