16
charge=0 charge_a=0 charge_b=0 selection_a=1-11 selection_b=12-16 scaling=1.10 benchmark_Eint=0.529 benchmark_unit=kcal/mol group=Halogens contact=Br-N
  C   -0.175446694  -2.007467188   1.577808032
  C   -0.829446694  -2.993467188   2.306808032
  C   -2.215446694  -3.053467188   2.245808032
  C   -2.885446694  -2.126467188   1.458808032
  C   -2.138446694  -1.179467188   0.767808032
  N   -0.807446694  -1.112467188   0.818808032
  H    0.906553306  -1.933467188   1.603808032
  H   -0.263446694  -3.693467188   2.905808032
  H   -2.760446694  -3.806467188   2.798808032
  H   -3.963446694  -2.133467188   1.379808032
  H   -2.630446694  -0.441467188   0.144808032
  C    0.482100981   2.585654919   0.448709691
 Br    0.914155821   1.259486679  -0.927018631
  H    1.271099543   2.558722493   1.190169004
  H    0.430000701   3.553059504  -0.033361808
  H   -0.472530208   2.310861788   0.881040616
