12
charge=0 charge_a=0 charge_b=0 selection_a=1-7 selection_b=8-12 scaling=1.10 benchmark_Eint=-3.013 benchmark_unit=kcal/mol group=Halogens contact=Br-N
  C   -1.498059411  -0.000000000  -1.600000000
  H   -1.808519061   0.012758830  -2.641457161
  H   -1.835724257   0.896679702  -1.094215496
  H   -1.834939241  -0.909253068  -1.116129316
  N    0.000000000   0.000000000  -1.600000000
  O    0.555879823  -1.083121416  -1.626657474
  O    0.555981287   1.083622540  -1.600000000
  C    1.959087022  -0.000197696   1.535650000
 Br   -0.000000000  -0.000000000   1.535650000
  H    2.287629359   1.031822620   1.535650000
  H    2.286867272  -0.515970187   2.428688547
  H    2.287147432  -0.516687271   0.641582392
