8
charge=0 charge_a=0 charge_b=0 selection_a=1-3 selection_b=4-8 scaling=1.10 benchmark_Eint=0.874 benchmark_unit=kcal/mol group=Halogens contact=Br-O
  H   -1.004584200  -0.486313027   1.938960870
  H   -0.430584200   0.925686973   1.990960870
  O   -0.518584200   0.158686973   1.419960870
  C   -0.081388391  -2.014523567  -1.862979060
 Br    0.656047907  -0.200750922  -1.796356998
  H   -1.093969317  -1.943710215  -2.240697656
  H    0.544118789  -2.598612199  -2.525217868
  H   -0.065082893  -2.412559439  -0.855485350
