6
charge=0 charge_a=0 charge_b=0 selection_a=1-3 selection_b=4-6 scaling=1.00 benchmark_Eint=1.756 benchmark_unit=kcal/mol group=Halogens contact=Br-O
  H   -1.004584200  -0.486313027   1.938960870
  H   -0.430584200   0.925686973   1.990960870
  O   -0.518584200   0.158686973   1.419960870
  C   -0.235635063  -1.794936933  -1.263647548
 Br    0.439253782  -0.134411833  -1.202742356
  N   -0.669625098  -2.861369615  -1.302966520
