15
charge=0 charge_a=0 charge_b=0 selection_a=1-5 selection_b=6-15 scaling=1.00 benchmark_Eint=1.852 benchmark_unit=kcal/mol group=Halogens contact=Br-O
  C   -1.959087032  -0.000000000  -1.900000000
 Br    0.000000000   0.000000000  -1.900000000
  H   -2.287525223   1.032053465  -1.900000000
  H   -2.286919328  -0.515739411  -2.793038547
  H   -2.287199561  -0.516456466  -1.005932392
  C   -0.000000000  -0.000000000   2.334673933
  O    0.000000000  -0.000000000   1.126016000
  C    0.833220725   0.984046520   3.130390383
  C   -0.831212319  -0.982463299   3.132055866
  H    1.553234152   0.446391322   3.751779595
  H   -0.194766629  -1.561757233   3.803949028
  H    0.199075293   1.559201059   3.807933613
  H    1.360462278   1.655300364   2.460037774
  H   -1.362350929  -1.653278540   2.461733042
  H   -1.547722854  -0.447440034   3.758116374
