13
charge=0 charge_a=0 charge_b=0 selection_a=1-3 selection_b=4-13 scaling=1.00 benchmark_Eint=1.672 benchmark_unit=kcal/mol group=Halogens contact=Br-O
  C   -1.793468149  -0.000000000  -1.900000000
 Br    0.000000000   0.000000000  -1.900000000
  N   -2.945497529   0.000553783  -1.900000000
  C   -0.000000000  -0.000000000   2.028925933
  O    0.000000000  -0.000000000   0.820268000
  C    0.833351598   0.983935691   2.824642383
  C   -0.831342982  -0.982352737   2.826307866
  H    1.553293509   0.446184734   3.446031595
  H   -0.194974345  -1.561731315   3.498201028
  H    0.199282669   1.559174568   3.502185613
  H    1.360682425   1.655119405   2.154289774
  H   -1.362570807  -1.653097329   2.155985042
  H   -1.547782351  -0.447234179   3.452368374
