13
charge=0 charge_a=0 charge_b=0 selection_a=1-3 selection_b=4-13 scaling=1.05 benchmark_Eint=-0.203 benchmark_unit=kcal/mol group=Halogens contact=Br-O
  C   -1.793468149  -0.000000000  -1.900000000
 Br    0.000000000   0.000000000  -1.900000000
  N   -2.945497529   0.000553783  -1.900000000
  C   -0.000000000  -0.000000000   2.164699933
  O    0.000000000  -0.000000000   0.956042000
  C    0.833351598   0.983935691   2.960416383
  C   -0.831342982  -0.982352737   2.962081866
  H    1.553293509   0.446184734   3.581805595
  H   -0.194974345  -1.561731315   3.633975028
  H    0.199282669   1.559174568   3.637959613
  H    1.360682425   1.655119405   2.290063774
  H   -1.362570807  -1.653097329   2.291759042
  H   -1.547782351  -0.447234179   3.588142374
