6
charge=0 charge_a=0 charge_b=0 selection_a=1-3 selection_b=4-6 scaling=1.25 benchmark_Eint=-1.372 benchmark_unit=kcal/mol group=Halogens contact=Br-O
  H   -1.004584200  -0.486313027   1.938960870
  H   -0.430584200   0.925686973   1.990960870
  O   -0.518584200   0.158686973   1.419960870
  C    0.003795262  -1.868202708  -1.919243482
 Br    0.678684107  -0.207677609  -1.858338290
  N   -0.430194773  -2.934635391  -1.958562454
