9
charge=0 charge_a=0 charge_b=0 selection_a=1-4 selection_b=5-9 scaling=1.25 benchmark_Eint=-0.162 benchmark_unit=kcal/mol group=Halogens contact=Br-P
  H    2.629997318   0.717791816  -1.389164127
  H    2.351997318   1.939791816   0.252835873
  H    3.016997318   0.000791816   0.508835873
  P    1.939997318   0.644791816  -0.152164127
  C   -2.703754699   0.993144453   0.954170695
 Br   -2.192783700  -0.728809762   0.171991484
  H   -2.986355943   1.651791094   0.142181078
  H   -3.535964467   0.815526654   1.622644943
  H   -1.844690413   1.377619055   1.490761632
