11
charge=0 charge_a=0 charge_b=0 selection_a=1-3 selection_b=4-11 scaling=1.15 benchmark_Eint=-0.889 benchmark_unit=kcal/mol group=Halogens contact=Br-P
  C   -1.793468149  -0.000000000  -1.900000000
 Br    0.000000000   0.000000000  -1.900000000
  N   -2.945497529   0.000553783  -1.900000000
  C    1.460702564   0.000783448   3.059042146
  C   -1.304719766  -0.000699787   2.937033405
  H    1.173930989  -0.005215303   4.108609713
  H   -2.302861605  -0.000967191   2.517736615
  H   -1.247475629  -0.001494993   4.018898220
  H    2.073701099   0.880971969   2.859668214
  H    2.080081522  -0.873604071   2.850938389
  P   -0.000000000   0.000000000   1.916490000
