13
charge=0 charge_a=0 charge_b=0 selection_a=1-5 selection_b=6-13 scaling=1.05 benchmark_Eint=1.143 benchmark_unit=kcal/mol group=Halogens contact=Br-P
  C   -1.959087032  -0.000000000  -1.900000000
 Br    0.000000000   0.000000000  -1.900000000
  H   -2.287525223   1.032053465  -1.900000000
  H   -2.286919328  -0.515739411  -2.793038547
  H   -2.287199561  -0.516456466  -1.005932392
  C    1.460702447   0.000977725   2.863517146
  C   -1.304719662  -0.000873318   2.741508405
  H    1.173931672  -0.005059168   3.913084713
  H   -2.302861456  -0.001273477   2.322211615
  H   -1.247475419  -0.001660911   3.823373220
  H    2.073583909   0.881247769   2.664143214
  H    2.080197695  -0.873327407   2.655413389
  P   -0.000000000   0.000000000   1.720965000
