7
charge=0 charge_a=0 charge_b=0 selection_a=1-4 selection_b=5-7 scaling=1.15 benchmark_Eint=-0.697 benchmark_unit=kcal/mol group=Halogens contact=Br-P
  H    2.629997318   0.717791816  -1.389164127
  H    2.351997318   1.939791816   0.252835873
  H    3.016997318   0.000791816   0.508835873
  P    1.939997318   0.644791816  -0.152164127
  C   -2.182416520   1.006390412   0.850764621
 Br   -1.714687922  -0.569906323   0.134491934
  N   -2.482966404   2.019118906   1.310354397
