14
charge=0 charge_a=0 charge_b=0 selection_a=1-9 selection_b=10-14 scaling=1.15 benchmark_Eint=-0.480 benchmark_unit=kcal/mol group=Halogens contact=Br-S
  C    2.710400666  -1.252991357   1.254353618
  C    3.069400666  -2.471991357   1.753353618
  C    2.004400666  -3.412991357   1.713353618
  C    0.860400666  -2.888991357   1.185353618
  H   -0.089599334  -3.373991357   1.037353618
  H    2.085400666  -4.431991357   2.061353618
  H    3.313400666  -0.365991357   1.165353618
  H    4.055400666  -2.690991357   2.135353618
  S    1.073400666  -1.244991357   0.733353618
  C    0.285447354   1.863662698  -2.009155462
 Br   -1.155319027   1.340004948  -0.789320722
  H    0.194911351   1.259010475  -2.903138079
  H    0.159942022   2.915000519  -2.232574795
  H    1.226090468   1.679483347  -1.504169819
