15
charge=0 charge_a=0 charge_b=0 selection_a=1-10 selection_b=11-15 scaling=1.15 benchmark_Eint=-0.652 benchmark_unit=kcal/mol group=Halogens contact=Br-S
  C    2.036993965   0.037917158  -2.755313450
  C    1.525993965   0.351917158  -4.132313450
  C    3.506993965  -0.259082842  -2.678313450
  H    1.713993965  -0.493082842  -4.800313450
  H    3.751993965  -1.104082842  -3.329313450
  H    2.072993965   1.200917158  -4.551313450
  H    0.463993965   0.573917158  -4.125313450
  H    3.819993965  -0.485082842  -1.663313450
  H    4.080993965   0.592917158  -3.053313450
  S    1.069993965   0.019917158  -1.447313450
  C   -0.177567895   1.590453305   2.116942073
 Br   -1.064114942  -0.019807724   1.439361266
  H   -0.714968485   2.448124407   1.731446437
  H   -0.217249031   1.556338812   3.197793871
  H    0.845683759   1.575935300   1.761291569
