11
charge=0 charge_a=0 charge_b=0 selection_a=1-5 selection_b=6-11 scaling=1.25 benchmark_Eint=-0.366 benchmark_unit=kcal/mol group=Halogens contact=Br-S
  C   -1.959087032  -0.000000000  -1.900000000
 Br    0.000000000   0.000000000  -1.900000000
  H   -2.287525223   1.032053465  -1.900000000
  H   -2.286919328  -0.515739411  -2.793038547
  H   -2.287199561  -0.516456466  -1.005932392
  C    1.369281723  -0.000329188   3.411133725
  H    1.349243100  -0.891875140   4.030950851
  H   -1.007670884   0.000242254   3.092745637
  H    1.349718439   0.892287566   4.031411573
  H    2.286099300  -0.000239169   2.826385470
  S    0.000000000   0.000000000   2.205520000
