8
charge=0 charge_a=0 charge_b=0 selection_a=1-5 selection_b=6-8 scaling=1.15 benchmark_Eint=-0.294 benchmark_unit=kcal/mol group=Halogens contact=Br-F
  C   -1.390184880   0.000000000  -1.400000000
  F    0.000000000   0.000000000  -1.400000000
  H   -1.739965695   1.031113661  -1.400000000
  H   -1.740592230  -0.515759599  -2.292799935
  H   -1.740294428  -0.515136811  -0.506383544
  C    1.793468129  -0.000268517   1.948180000
 Br   -0.000000000   0.000000000   1.948180000
  N    2.945497579   0.000112785   1.948180000
