10
charge=0 charge_a=0 charge_b=0 selection_a=1-5 selection_b=6-10 scaling=1.10 benchmark_Eint=-0.495 benchmark_unit=kcal/mol group=Halogens contact=Br-F
  C   -1.390184880   0.000000000  -1.400000000
  F    0.000000000   0.000000000  -1.400000000
  H   -1.739965695   1.031113661  -1.400000000
  H   -1.740592230  -0.515759599  -2.292799935
  H   -1.740294428  -0.515136811  -0.506383544
  C    1.959087032  -0.000032750   1.814200000
 Br    0.000000000  -0.000000000   1.814200000
  H    2.287542475   1.032015225   1.814200000
  H    2.286910706  -0.515777641   2.707238547
  H    2.287190927  -0.516494700   0.920132392
