10
charge=0 charge_a=0 charge_b=0 selection_a=1-5 selection_b=6-10 scaling=1.00 benchmark_Eint=1.821 benchmark_unit=kcal/mol group=Halogens contact=Br-Cl
  C   -1.795495753   0.000000000  -1.780000000
 Cl    0.000000000   0.000000000  -1.780000000
  H   -2.135682022   1.030042379  -1.780000000
  H   -2.136211680  -0.513776802  -2.671221664
  H   -2.136028444  -0.513679394  -0.888486138
  C    1.959086944  -0.000585986   1.430064000
 Br   -0.000000000   0.000000000   1.430064000
  H    2.287833820   1.031369193   1.430064000
  H    2.286764962  -0.516423432   2.323102547
  H    2.287044981  -0.517140571   0.535996392
