5
charge=0 charge_a=0 charge_b=0 selection_a=1-2 selection_b=3-5 scaling=1.25 benchmark_Eint=-0.186 benchmark_unit=kcal/mol group=Halogens contact=I-H
  F    0.655496934  -0.274524357   1.568710612
  H    0.304496934  -0.127524357   0.728710612
  C   -2.537738598  -0.311125404  -1.167671269
  I   -0.753607074   0.315613219  -1.803504111
  N   -3.569412235  -0.672717220  -0.799857639
