9
charge=0 charge_a=0 charge_b=0 selection_a=1-5 selection_b=6-9 scaling=1.00 benchmark_Eint=2.796 benchmark_unit=kcal/mol group=Halogens contact=I-H
  C   -2.155722849   0.000000000  -2.100000000
  I    0.000000000   0.000000000  -2.100000000
  H   -2.479116925   1.033491302  -2.100000000
  H   -2.479940315  -0.515857276  -2.995032572
  H   -2.479884185  -0.516346732  -1.206314104
  C   -0.000000000   0.000000000   1.347567125
  C    0.000803846  -0.000033379   2.543447701
  H    0.000000000  -0.000000000   0.286120000
  H    0.001801238   0.000033029   3.604866563
