10
charge=0 charge_a=0 charge_b=0 selection_a=1-5 selection_b=6-10 scaling=1.00 benchmark_Eint=2.611 benchmark_unit=kcal/mol group=Halogens contact=I-H
  C   -2.155722849   0.000000000  -2.100000000
  I    0.000000000   0.000000000  -2.100000000
  H   -2.479116925   1.033491302  -2.100000000
  H   -2.479940315  -0.515857276  -2.995032572
  H   -2.479884185  -0.516346732  -1.206314104
  C    0.000000000  -0.000000000   1.545565140
  H   -0.000000000  -0.000000000   0.457800000
  H    0.824723529   0.610647507   1.907915417
  H   -0.939672747   0.408224670   1.908796122
  H    0.117354842  -1.018872500   1.908210517
