8
charge=0 charge_a=0 charge_b=0 selection_a=1-5 selection_b=6-8 scaling=1.25 benchmark_Eint=-0.722 benchmark_unit=kcal/mol group=Halogens contact=I-C
  C   -1.700000000   0.000000000   0.000000000
  H   -2.787765140   0.000000000  -0.000000000
  H   -1.337649723   1.026186765   0.000000000
  H   -1.336769018  -0.512274047   0.887247178
  H   -1.337354622  -0.511979565  -0.888678938
  C    2.312869449   1.602246806  -1.187067833
  I    2.312029197  -0.000782508   0.000579552
  N    2.313355235   2.529507008  -1.873052003
