6
charge=0 charge_a=0 charge_b=0 selection_a=1-3 selection_b=4-6 scaling=1.15 benchmark_Eint=-0.993 benchmark_unit=kcal/mol group=Halogens contact=I-N
  C   -2.735331436  -0.059932766   0.222949889
  H   -3.797331436  -0.083932766   0.308949889
  N   -1.594331436  -0.034932766   0.129949889
  C    2.002319363   1.627610381   1.051741094
  I    1.938447947   0.042472567  -0.157997948
  N    2.039308796   2.543559376   1.751780536
