13
charge=0 charge_a=0 charge_b=0 selection_a=1-3 selection_b=4-13 scaling=1.25 benchmark_Eint=-1.806 benchmark_unit=kcal/mol group=Halogens contact=I-O
  C   -1.995046365   0.000000000  -2.100000000
  I    0.000000000   0.000000000  -2.100000000
  N   -3.148469684   0.000804703  -2.100000000
  C   -0.000000000  -0.000000000   2.688837933
  O    0.000000000  -0.000000000   1.480180000
  C    0.833390554   0.983902696   3.484554383
  C   -0.831381875  -0.982319821   3.486219866
  H    1.553311174   0.446123235   4.105943595
  H   -0.195036178  -1.561723594   4.158113028
  H    0.199344400   1.559166677   4.162097613
  H    1.360747955   1.655065530   2.814201774
  H   -1.362636256  -1.653043380   2.815897042
  H   -1.547800057  -0.447172898   4.112280374
