15
charge=0 charge_a=0 charge_b=0 selection_a=1-5 selection_b=6-15 scaling=1.05 benchmark_Eint=1.044 benchmark_unit=kcal/mol group=Halogens contact=I-O
  C   -2.155722849   0.000000000  -2.100000000
  I    0.000000000   0.000000000  -2.100000000
  H   -2.479116925   1.033491302  -2.100000000
  H   -2.479940315  -0.515857276  -2.995032572
  H   -2.479884185  -0.516346732  -1.206314104
  C   -0.000000000  -0.000000000   2.428197933
  O    0.000000000  -0.000000000   1.219540000
  C    0.833368630   0.983921266   3.223914383
  C   -0.831359987  -0.982338346   3.225579866
  H    1.553301233   0.446157846   3.845303595
  H   -0.195001379  -1.561727940   3.897473028
  H    0.199309659   1.559171118   3.901457613
  H    1.360711076   1.655095851   2.553561774
  H   -1.362599422  -1.653073743   2.555257042
  H   -1.547790093  -0.447207386   3.851640374
