8
charge=0 charge_a=0 charge_b=0 selection_a=1-3 selection_b=4-8 scaling=1.10 benchmark_Eint=0.895 benchmark_unit=kcal/mol group=Halogens contact=I-O
  H   -1.004584200  -0.486313027   1.938960870
  H   -0.430584200   0.925686973   1.990960870
  O   -0.518584200   0.158686973   1.419960870
  C   -0.109777101  -2.210568660  -1.993724617
  I    0.701397413  -0.214627889  -1.920530707
  H   -1.121714393  -2.134724532  -2.371770362
  H    0.517943758  -2.791507488  -2.657641479
  H   -0.091877409  -2.604892244  -0.986472159
