13
charge=0 charge_a=0 charge_b=0 selection_a=1-5 selection_b=6-13 scaling=1.25 benchmark_Eint=-0.268 benchmark_unit=kcal/mol group=Halogens contact=I-P
  C   -2.155722849   0.000000000  -2.100000000
  I    0.000000000   0.000000000  -2.100000000
  H   -2.479116925   1.033491302  -2.100000000
  H   -2.479940315  -0.515857276  -2.995032572
  H   -2.479884185  -0.516346732  -1.206314104
  C    1.460702578   0.000758163   3.562732146
  C   -1.304719778  -0.000677202   3.440723405
  H    1.173930898  -0.005235625   4.612299713
  H   -2.302861622  -0.000927327   3.021426615
  H   -1.247475655  -0.001473399   4.522588220
  H    2.073716348   0.880936073   3.363358214
  H    2.080066399  -0.873640078   3.354628389
  P    0.000000000  -0.000000000   2.420180000
