11
charge=0 charge_a=0 charge_b=0 selection_a=1-3 selection_b=4-11 scaling=1.25 benchmark_Eint=-1.060 benchmark_unit=kcal/mol group=Halogens contact=I-P
  C   -1.995046365   0.000000000  -2.100000000
  I    0.000000000   0.000000000  -2.100000000
  N   -3.148469684   0.000804703  -2.100000000
  C    1.460702594   0.000725615   3.398392146
  C   -1.304719793  -0.000648130   3.276383405
  H    1.173930781  -0.005261782   4.447959713
  H   -2.302861642  -0.000876014   2.857086615
  H   -1.247475687  -0.001445602   4.358248220
  H    2.073735977   0.880889865   3.199018214
  H    2.080046932  -0.873686426   3.190288389
  P    0.000000000  -0.000000000   2.255840000
