7
charge=0 charge_a=0 charge_b=0 selection_a=1-4 selection_b=5-7 scaling=1.00 benchmark_Eint=2.599 benchmark_unit=kcal/mol group=Halogens contact=I-P
  H    2.629997318   0.717791816  -1.389164127
  H    2.351997318   1.939791816   0.252835873
  H    3.016997318   0.000791816   0.508835873
  P    1.939997318   0.644791816  -0.152164127
  C   -1.916145426   1.289498759   0.906335566
  I   -1.395861192  -0.463938720   0.109484687
  N   -2.217098024   2.303526029   1.366294508
