7
charge=0 charge_a=0 charge_b=0 selection_a=1-4 selection_b=5-7 scaling=1.10 benchmark_Eint=-0.126 benchmark_unit=kcal/mol group=Halogens contact=I-P
  H    2.629997318   0.717791816  -1.389164127
  H    2.351997318   1.939791816   0.252835873
  H    3.016997318   0.000791816   0.508835873
  P    1.939997318   0.644791816  -0.152164127
  C   -2.249574184   1.178677917   0.932488126
  I   -1.729289950  -0.574759561   0.135637247
  N   -2.550526783   2.192705188   1.392447068
