11
charge=0 charge_a=0 charge_b=0 selection_a=1-3 selection_b=4-11 scaling=1.00 benchmark_Eint=2.632 benchmark_unit=kcal/mol group=Halogens contact=I-P
  C   -1.995046365   0.000000000  -2.100000000
  I    0.000000000   0.000000000  -2.100000000
  N   -3.148469684   0.000804703  -2.100000000
  C    1.460702594   0.000725615   2.527307146
  C   -1.304719793  -0.000648130   2.405298405
  H    1.173930781  -0.005261782   3.576874713
  H   -2.302861642  -0.000876014   1.986001615
  H   -1.247475687  -0.001445602   3.487163220
  H    2.073735977   0.880889865   2.327933214
  H    2.080046932  -0.873686426   2.319203389
  P    0.000000000  -0.000000000   1.384755000
