9
charge=0 charge_a=0 charge_b=0 selection_a=1-6 selection_b=7-9 scaling=1.10 benchmark_Eint=-0.354 benchmark_unit=kcal/mol group=Halogens contact=I-S
  C    0.170692492  -0.415619026  -3.272120308
  H   -0.260307508  -1.293619026  -3.744120308
  H    1.495692492  -1.712619026  -1.751120308
  H    1.036692492  -0.071619026  -3.832120308
  H   -0.574307508   0.376380974  -3.258120308
  S    0.595692492  -0.741619026  -1.528120308
  C    0.580221797  -0.427733864   2.639571845
  I   -0.619728684   0.771543354   1.589779962
  N    1.274550631  -1.120537305   3.246462991
