14
charge=0 charge_a=0 charge_b=0 selection_a=1-9 selection_b=10-14 scaling=1.05 benchmark_Eint=0.774 benchmark_unit=kcal/mol group=Halogens contact=I-S
  C    2.710400666  -1.252991357   1.254353618
  C    3.069400666  -2.471991357   1.753353618
  C    2.004400666  -3.412991357   1.713353618
  C    0.860400666  -2.888991357   1.185353618
  H   -0.089599334  -3.373991357   1.037353618
  H    2.085400666  -4.431991357   2.061353618
  H    3.313400666  -0.365991357   1.165353618
  H    4.055400666  -2.690991357   2.135353618
  S    1.073400666  -1.244991357   0.733353618
  C    0.518772201   1.813666191  -2.070836845
  I   -1.066709802   1.237230911  -0.728782381
  H    0.424193861   1.206775139  -2.962703532
  H    0.389415896   2.865508017  -2.292658213
  H    1.456205158   1.628633031  -1.563538923
