6
charge=0 charge_a=0 charge_b=0 selection_a=1-3 selection_b=4-6 scaling=1.25 benchmark_Eint=-1.231 benchmark_unit=kcal/mol group=Halogens contact=I-Br
  C   -1.995046365   0.000000000  -2.100000000
  I    0.000000000   0.000000000  -2.100000000
  N   -3.148469684   0.000804703  -2.100000000
  C    1.793468082  -0.000490168   2.167200000
 Br   -0.000000000   0.000000000   2.167200000
  N    2.945497570  -0.000251243   2.167200000
