10
charge=0 charge_a=0 charge_b=0 selection_a=1-5 selection_b=6-10 scaling=1.00 benchmark_Eint=1.979 benchmark_unit=kcal/mol group=Halogens contact=I-Br
  C   -2.155722849   0.000000000  -2.100000000
  I    0.000000000   0.000000000  -2.100000000
  H   -2.479116925   1.033491302  -2.100000000
  H   -2.479940315  -0.515857276  -2.995032572
  H   -2.479884185  -0.516346732  -1.206314104
  C    1.959087018  -0.000231216   1.396000000
 Br    0.000000000  -0.000000000   1.396000000
  H    2.287647013   1.031783478   1.396000000
  H    2.286858443  -0.516009315   2.289038547
  H    2.287138592  -0.516726404   0.501932392
