10
charge=0 charge_a=0 charge_b=0 selection_a=1-5 selection_b=6-10 scaling=1.05 benchmark_Eint=0.567 benchmark_unit=kcal/mol group=Halogens contact=I-I
  C   -2.155722849   0.000000000  -2.100000000
  I    0.000000000   0.000000000  -2.100000000
  H   -2.479116925   1.033491302  -2.100000000
  H   -2.479940315  -0.515857276  -2.995032572
  H   -2.479884185  -0.516346732  -1.206314104
  C    2.155722771  -0.000578457   1.743840000
  I   -0.000000000   0.000000000   1.743840000
  H    2.479394158   1.032826030   1.743840000
  H    2.479801803  -0.516522713   2.638872572
  H    2.479745542  -0.517012154   0.850154104
