6
charge=0 charge_a=0 charge_b=0 selection_a=1-3 selection_b=4-6 scaling=1.05 benchmark_Eint=0.511 benchmark_unit=kcal/mol group=Halogens contact=I-I
  C   -1.995046365   0.000000000  -2.100000000
  I    0.000000000   0.000000000  -2.100000000
  N   -3.148469684   0.000804703  -2.100000000
  C    1.995046267  -0.000624250   1.643040000
  I    0.000000000   0.000000000   1.643040000
  N    3.148469782  -0.000180453   1.643040000
