4
charge=0 charge_a=0 charge_b=0 selection_a=1-3 selection_b=4 scaling=1.00 benchmark_Eint=2.082 benchmark_unit=kcal/mol group=NobleGases contact=He-N
  C   -2.735331436  -0.059932766   0.222949889
  H   -3.797331436  -0.083932766   0.308949889
  N   -1.594331436  -0.034932766   0.129949889
 He    0.755688189   0.016557585  -0.061594217
