11
charge=0 charge_a=0 charge_b=0 selection_a=1 selection_b=2-11 scaling=1.25 benchmark_Eint=-0.011 benchmark_unit=kcal/mol group=NobleGases contact=He-O
 He   -1.250000000   0.000000000   0.000000000
  C    2.701511933  -0.000000000   0.000000000
  O    1.492854000  -0.000000000  -0.000000000
  C    3.497228383   0.991586485  -0.824233324
  C    3.498893866  -0.989985056   0.822239407
  H    4.118617595   0.460504265  -1.549108571
  H    4.170787028  -1.563464593   0.180549607
  H    4.174771613   1.560947726  -0.184881348
  H    2.826875774   1.667609422  -1.345345949
  H    2.828571042  -1.665604865   1.347252915
  H    4.124954374  -0.461502791   1.543587960
