9
charge=0 charge_a=0 charge_b=0 selection_a=1 selection_b=2-9 scaling=1.00 benchmark_Eint=2.361 benchmark_unit=kcal/mol group=NobleGases contact=He-P
 He   -1.250000000   0.000000000   0.000000000
  C    2.692602146   1.306065295   0.654099411
  C    2.570593405  -1.166595615  -0.584250656
  H    3.742169713   1.052267339   0.520456158
  H    2.151296615  -2.059189033  -1.030976738
  H    3.652458220  -1.115042184  -0.559355529
  H    2.493228214   1.460591545   1.715523301
  H    2.484498389   2.251151679   0.149128566
  P    1.550050000   0.000000000   0.000000000
