4
charge=0 charge_a=0 charge_b=0 selection_a=1-3 selection_b=4 scaling=1.10 benchmark_Eint=0.707 benchmark_unit=kcal/mol group=NobleGases contact=He-S
  H    0.880172729  -2.754189816   0.122632441
  H    0.117172729  -2.395189816  -1.621367559
  S    0.329172729  -1.699189816  -0.494367559
 He   -0.189715959   0.979313891   0.284924623
