5
charge=0 charge_a=0 charge_b=0 selection_a=1 selection_b=2-5 scaling=1.00 benchmark_Eint=2.354 benchmark_unit=kcal/mol group=NobleGases contact=Ne-H
 Ne   -1.400000000   0.000000000   0.000000000
  C    1.502187125   0.000000000   0.000000000
  C    2.698067701  -0.000663043  -0.000455693
  H    0.440740000  -0.000000000  -0.000000000
  H    3.759486563  -0.001421024  -0.001107357
