5
charge=0 charge_a=0 charge_b=0 selection_a=1 selection_b=2-5 scaling=1.05 benchmark_Eint=1.447 benchmark_unit=kcal/mol group=NobleGases contact=Ne-H
 Ne   -1.400000000   0.000000000   0.000000000
  C    1.594147125   0.000000000   0.000000000
  C    2.790027701  -0.000663043  -0.000455693
  H    0.532700000  -0.000000000  -0.000000000
  H    3.851446563  -0.001421024  -0.001107357
