5
charge=0 charge_a=0 charge_b=0 selection_a=1 selection_b=2-5 scaling=1.05 benchmark_Eint=1.474 benchmark_unit=kcal/mol group=NobleGases contact=Ne-H
 Ne   -1.400000000   0.000000000   0.000000000
  B    1.914092096  -0.000000001  -0.000000000
  H    0.726740000  -0.000000000  -0.000000000
  H    2.507797200  -0.250060949  -0.998267385
  H    2.508312633   0.249072155   0.997434716
