13
charge=0 charge_a=0 charge_b=0 selection_a=1 selection_b=2-13 scaling=1.15 benchmark_Eint=0.043 benchmark_unit=kcal/mol group=NobleGases contact=Ne-C
 Ne   -1.400000000   0.000000000   0.000000000
  C    1.607000000   0.000000000  -0.000000000
  C    1.607000000  -1.205177091  -0.696235002
  C    1.607000000  -1.204290307  -2.086973372
  C    1.606526714   0.000446776  -2.781351753
  C    1.607023148   1.204612554  -2.085971618
  C    1.607435643   1.204390956  -0.694610852
  H    1.607286895  -0.000692332   1.081855091
  H    1.606743666  -2.141439099  -0.154950061
  H    1.605983485  -2.141186775  -2.627418535
  H    1.606239818   0.001139107  -3.863206845
  H    1.606783048   2.141885874  -2.626401693
  H    1.607421645   2.140310337  -0.152438453
