5
charge=0 charge_a=0 charge_b=0 selection_a=1 selection_b=2-5 scaling=1.15 benchmark_Eint=0.289 benchmark_unit=kcal/mol group=NobleGases contact=Ne-N
 Ne   -1.400000000   0.000000000   0.000000000
  N    1.605100000   0.000000000  -0.000000000
  H    1.978286697  -0.122885092  -0.933555003
  H    1.977995159  -0.746390659   0.572534876
  H    1.977553271   0.868873772   0.360015180
