10
charge=0 charge_a=0 charge_b=0 selection_a=1 selection_b=2-10 scaling=1.05 benchmark_Eint=0.962 benchmark_unit=kcal/mol group=NobleGases contact=Ne-O
 Ne   -1.400000000   0.000000000   0.000000000
  C    1.957580980   0.248253515   1.064614161
  C    3.258397873   0.161756582   0.697580523
  C    3.258363462  -0.163932761  -0.697729281
  C    1.957381588  -0.248192461  -1.064352338
  H    1.463001603  -0.465309923  -1.993503799
  H    4.113029505  -0.313229920  -1.333241132
  H    1.463024074   0.465627957   1.992893655
  H    4.112629640   0.309690636   1.333738212
  O    1.146824000  -0.000000000   0.000000000
