11
charge=0 charge_a=0 charge_b=0 selection_a=1 selection_b=2-11 scaling=1.15 benchmark_Eint=0.031 benchmark_unit=kcal/mol group=NobleGases contact=Ne-O
 Ne   -1.400000000   0.000000000   0.000000000
  C    2.561049933  -0.000000000   0.000000000
  O    1.352392000  -0.000000000  -0.000000000
  C    3.356766383   0.988359437  -0.828100208
  C    3.358431866  -0.986765808   0.826100050
  H    3.978155595   0.454449880  -1.550895499
  H    4.030325028  -1.562747433   0.186655176
  H    4.034309613   1.560213665  -0.190977054
  H    2.686413774   1.662341733  -1.351849426
  H    2.688109042  -1.660329742   1.353748548
  H    3.984492374  -0.455469962   1.545378831
