9
charge=0 charge_a=0 charge_b=0 selection_a=1 selection_b=2-9 scaling=1.00 benchmark_Eint=2.446 benchmark_unit=kcal/mol group=NobleGases contact=Ne-P
 Ne   -1.400000000   0.000000000   0.000000000
  C    2.652282146   1.306918706  -0.652392590
  C    2.530273405  -1.167357894   0.582726099
  H    3.701849713   1.047725330  -0.529540177
  H    2.110976615  -2.060294810   1.028765183
  H    3.612138220  -1.116509733   0.556420430
  H    2.452908214   2.248773568  -0.139159256
  H    2.444178389   1.469993860  -1.711444204
  P    1.509730000   0.000000000  -0.000000000
