7
charge=0 charge_a=0 charge_b=0 selection_a=1 selection_b=2-7 scaling=1.00 benchmark_Eint=2.168 benchmark_unit=kcal/mol group=NobleGases contact=Ne-S
 Ne   -1.400000000   0.000000000   0.000000000
  C    2.561773725  -0.433338166  -1.298903607
  H    3.181590851  -1.272791293  -0.997948162
  H    2.243385637   0.318898768   0.955878782
  H    3.182051573   0.419654636  -1.562628219
  H    1.977025470  -0.723189984  -2.168696916
  S    1.356160000   0.000000000  -0.000000000
