6
charge=0 charge_a=0 charge_b=0 selection_a=1 selection_b=2-6 scaling=1.15 benchmark_Eint=-0.011 benchmark_unit=kcal/mol group=NobleGases contact=Ne-F
 Ne   -1.400000000   0.000000000   0.000000000
  C    1.380400000  -0.000045684  -1.390184879
  F    1.380400000  -0.000000000  -0.000000000
  H    1.380400000   1.031056482  -1.739999578
  H    2.273199935  -0.515816798  -1.740575280
  H    0.486783544  -0.515194000  -1.740277499
