4
charge=0 charge_a=0 charge_b=0 selection_a=1 selection_b=2-4 scaling=1.15 benchmark_Eint=0.141 benchmark_unit=kcal/mol group=NobleGases contact=Ne-I
 Ne   -1.400000000   0.000000000   0.000000000
  C    2.036300000  -0.000312125  -1.995046341
  I    2.036300000   0.000000000  -0.000000000
  N    2.036300000   0.000312125  -3.148469771
