5
charge=0 charge_a=0 charge_b=0 selection_a=1-4 selection_b=5 scaling=1.10 benchmark_Eint=0.532 benchmark_unit=kcal/mol group=NobleGases contact=Ar-H
  C    0.052610641  -1.106577151  -1.495895895
  C    0.085610641  -1.817577151  -2.456895895
  H    0.022610641  -0.475577151  -0.642895895
  H    0.114610641  -2.448577151  -3.309895895
 Ar   -0.045252372   0.951808221   1.286675772
