6
charge=0 charge_a=0 charge_b=0 selection_a=1-5 selection_b=6 scaling=1.00 benchmark_Eint=1.788 benchmark_unit=kcal/mol group=NobleGases contact=Ar-Cl
  C   -1.795495753   0.000000000  -1.780000000
 Cl    0.000000000   0.000000000  -1.780000000
  H   -2.135682022   1.030042379  -1.780000000
  H   -2.136211680  -0.513776802  -2.671221664
  H   -2.136028444  -0.513679394  -0.888486138
 Ar   -0.000000000  -0.000000000   1.285554000
