4
charge=0 charge_a=0 charge_b=0 selection_a=1 selection_b=2-4 scaling=1.05 benchmark_Eint=0.663 benchmark_unit=kcal/mol group=NobleGases contact=Kr-N
 Kr   -1.930000000   0.000000000   0.000000000
  C    2.356403767  -0.000000000  -0.000000000
  H    3.422150056  -0.000274675   0.000878959
  N    1.211347000   0.000000000  -0.000000000
