5
charge=0 charge_a=0 charge_b=0 selection_a=1 selection_b=2-5 scaling=1.00 benchmark_Eint=1.830 benchmark_unit=kcal/mol group=NobleGases contact=Kr-N
 Kr   -1.930000000   0.000000000   0.000000000
  N    1.126980000  -0.000000000   0.000000000
  H    1.500166697  -0.081860999  -0.938042891
  H    1.499875159  -0.770760850   0.539279995
  H    1.499433270   0.852264289   0.397741301
