11
charge=0 charge_a=0 charge_b=0 selection_a=1 selection_b=2-11 scaling=1.15 benchmark_Eint=-0.508 benchmark_unit=kcal/mol group=NobleGases contact=Kr-O
 Kr   -1.930000000   0.000000000   0.000000000
  C    2.540287933  -0.000000000   0.000000000
  O    1.331630000   0.000000000  -0.000000000
  C    3.336004383   0.988359437  -0.828100208
  C    3.337669866  -0.986765808   0.826100050
  H    3.957393595   0.454449880  -1.550895499
  H    4.009563028  -1.562747433   0.186655176
  H    4.013547613   1.560213665  -0.190977054
  H    2.665651774   1.662341733  -1.351849426
  H    2.667347042  -1.660329742   1.353748548
  H    3.963730374  -0.455469962   1.545378831
