11
charge=0 charge_a=0 charge_b=0 selection_a=1 selection_b=2-11 scaling=1.25 benchmark_Eint=-0.599 benchmark_unit=kcal/mol group=NobleGases contact=Kr-O
 Kr   -1.930000000   0.000000000   0.000000000
  C    2.823877933  -0.000000000   0.000000000
  O    1.615220000   0.000000000  -0.000000000
  C    3.619594383   0.988359437  -0.828100208
  C    3.621259866  -0.986765808   0.826100050
  H    4.240983595   0.454449880  -1.550895499
  H    4.293153028  -1.562747433   0.186655176
  H    4.297137613   1.560213665  -0.190977054
  H    2.949241774   1.662341733  -1.351849426
  H    2.950937042  -1.660329742   1.353748548
  H    4.247320374  -0.455469962   1.545378831
