8
charge=0 charge_a=0 charge_b=0 selection_a=1 selection_b=2-8 scaling=1.00 benchmark_Eint=2.158 benchmark_unit=kcal/mol group=NobleGases contact=Xe-N
 Xe   -2.100000000   0.000000000   0.000000000
  N    1.016880000   0.000000000   0.000000000
  C    1.434778578  -1.166719942  -0.778164092
  H    1.374713618  -0.047419542   0.944332298
  H    1.023101716  -1.093602495  -1.784645587
  H    1.019431697  -2.066951232  -0.324890893
  H    2.519271530  -1.303219652  -0.866151966
  H    1.375005878   0.853499977  -0.406755018
