12
charge=0 charge_a=0 charge_b=0 selection_a=1 selection_b=2-12 scaling=1.10 benchmark_Eint=-0.236 benchmark_unit=kcal/mol group=NobleGases contact=Xe-N
 Xe   -2.100000000   0.000000000   0.000000000
  C    1.965056950  -0.212260525  -1.119345325
  C    3.353728100  -0.223558518  -1.172428209
  C    4.063679261  -0.001324606   0.000132423
  C    3.354510687   0.221316653   1.172782756
  C    1.965469776   0.212387196   1.120013320
  N    1.273290000   0.000000000   0.000000000
  H    1.380875146  -0.382547170  -2.017460061
  H    3.861339483  -0.401615543  -2.110395894
  H    5.145271188  -0.002527746  -0.000543931
  H    3.862966294   0.398858048   2.109973211
  H    1.381810767   0.382993592   2.017271710
