12
charge=0 charge_a=0 charge_b=0 selection_a=1 selection_b=2-12 scaling=1.05 benchmark_Eint=0.601 benchmark_unit=kcal/mol group=NobleGases contact=Xe-N
 Xe   -2.100000000   0.000000000   0.000000000
  C    1.811876950  -0.212260525  -1.119345325
  C    3.200548100  -0.223558518  -1.172428209
  C    3.910499261  -0.001324606   0.000132423
  C    3.201330687   0.221316653   1.172782756
  C    1.812289776   0.212387196   1.120013320
  N    1.120110000   0.000000000   0.000000000
  H    1.227695146  -0.382547170  -2.017460061
  H    3.708159483  -0.401615543  -2.110395894
  H    4.992091188  -0.002527746  -0.000543931
  H    3.709786294   0.398858048   2.109973211
  H    1.228630767   0.382993592   2.017271710
