11
charge=0 charge_a=0 charge_b=0 selection_a=1 selection_b=2-11 scaling=1.25 benchmark_Eint=-0.741 benchmark_unit=kcal/mol group=NobleGases contact=Xe-O
 Xe   -2.100000000   0.000000000   0.000000000
  C    2.814813933  -0.000000000   0.000000000
  O    1.606156000   0.000000000  -0.000000000
  C    3.610530383   0.988359437  -0.828100208
  C    3.612195866  -0.986765808   0.826100050
  H    4.231919595   0.454449880  -1.550895499
  H    4.284089028  -1.562747433   0.186655176
  H    4.288073613   1.560213665  -0.190977054
  H    2.940177774   1.662341733  -1.351849426
  H    2.941873042  -1.660329742   1.353748548
  H    4.238256374  -0.455469962   1.545378831
