4
charge=0 charge_a=0 charge_b=0 selection_a=1 selection_b=2-4 scaling=1.00 benchmark_Eint=1.763 benchmark_unit=kcal/mol group=NobleGases contact=Xe-O
 Xe   -2.100000000   0.000000000   0.000000000
  H    1.499498813  -0.184920315  -0.739682572
  H    1.499654497   0.184969669   0.739879991
  O    0.916184000  -0.000000000  -0.000000000
