10
charge=0 charge_a=0 charge_b=0 selection_a=1 selection_b=2-10 scaling=1.15 benchmark_Eint=-0.559 benchmark_unit=kcal/mol group=NobleGases contact=Xe-O
 Xe   -2.100000000   0.000000000   0.000000000
  C    2.151204980   0.797101094   0.748106253
  C    3.452021873   0.521537665   0.490695672
  C    3.451987462  -0.523430872  -0.489612319
  C    2.151005588  -0.796905061  -0.747922269
  H    1.656625603  -1.492958207  -1.400587917
  H    4.306653505  -1.000172165  -0.935574978
  H    1.656648074   1.492884380   1.399903833
  H    4.306253640   0.997503033   0.937951815
  O    1.340448000  -0.000000000  -0.000000000
