9
charge=0 charge_a=0 charge_b=0 selection_a=1 selection_b=2-9 scaling=1.05 benchmark_Eint=0.845 benchmark_unit=kcal/mol group=NobleGases contact=Xe-P
 Xe   -2.100000000   0.000000000   0.000000000
  C    2.736882146   1.033547297  -1.032197936
  C    2.614873405  -0.923178764   0.921973496
  H    3.786449713   0.826504214  -0.833685762
  H    2.195576615  -1.629243160   1.627494772
  H    3.696738220  -0.883258547   0.880938148
  H    2.537508214   2.089367904  -0.843142703
  H    2.528778389   0.853352446  -2.088471406
  P    1.594330000  -0.000000000   0.000000000
