14
charge=0 charge_a=0 charge_b=0 selection_a=1 selection_b=2-14 scaling=1.05 benchmark_Eint=0.890 benchmark_unit=kcal/mol group=NobleGases contact=Xe-P
 Xe   -2.100000000   0.000000000   0.000000000
  C    2.485593386   1.273655688  -1.025032572
  C    2.484282119   0.250734029   1.615826295
  C    2.485028977  -1.523917151  -0.590923267
  H    2.187512287   2.269452542  -0.697122090
  H    2.185152165  -0.530270775   2.313971529
  H    2.187231125  -1.738560099  -1.617170237
  H    2.188306645   1.167872916  -2.068108121
  H    3.572821677   1.191514391  -0.958373375
  H    2.185667444   1.208166050   2.042219542
  H    3.571133243   0.234307693   1.511856066
  H    2.189245914  -2.373967566   0.024647747
  H    3.571730675  -1.423831465  -0.553143977
  P    1.613420000  -0.000000000   0.000000000
