14
charge=0 charge_a=0 charge_b=0 selection_a=1 selection_b=2-14 scaling=1.15 benchmark_Eint=-0.423 benchmark_unit=kcal/mol group=NobleGases contact=Xe-P
 Xe   -2.100000000   0.000000000   0.000000000
  C    2.839173386   1.273655688  -1.025032572
  C    2.837862119   0.250734029   1.615826295
  C    2.838608977  -1.523917151  -0.590923267
  H    2.541092287   2.269452542  -0.697122090
  H    2.538732165  -0.530270775   2.313971529
  H    2.540811125  -1.738560099  -1.617170237
  H    2.541886645   1.167872916  -2.068108121
  H    3.926401678   1.191514391  -0.958373375
  H    2.539247444   1.208166050   2.042219542
  H    3.924713244   0.234307693   1.511856066
  H    2.542825915  -2.373967566   0.024647747
  H    3.925310675  -1.423831465  -0.553143977
  P    1.967000000  -0.000000000   0.000000000
