7
charge=0 charge_a=0 charge_b=0 selection_a=1 selection_b=2-7 scaling=1.00 benchmark_Eint=1.945 benchmark_unit=kcal/mol group=NobleGases contact=Xe-S
 Xe   -2.100000000   0.000000000   0.000000000
  C    2.467023725  -0.433338166  -1.298903607
  H    3.086840851  -1.272791293  -0.997948162
  H    2.148635637   0.318898768   0.955878782
  H    3.087301573   0.419654636  -1.562628219
  H    1.882275470  -0.723189984  -2.168696916
  S    1.261410000  -0.000000000   0.000000000
