11
charge=0 charge_a=0 charge_b=0 selection_a=1 selection_b=2-11 scaling=1.25 benchmark_Eint=-0.762 benchmark_unit=kcal/mol group=NobleGases contact=Xe-S
 Xe   -2.100000000   0.000000000   0.000000000
  C    3.620568148  -0.000000000   0.000000000
  C    4.427477976  -0.449428635  -1.184380188
  C    4.429197368   0.447753354   1.183500620
  H    5.066997005  -1.289929706  -0.901243538
  H    5.088930467  -0.361073006   1.512746966
  H    5.098933922   0.351013747  -1.506885857
  H    3.793009545  -0.745136871  -2.013345476
  H    3.796632747   0.754702928   2.011095907
  H    5.081357645   1.278098592   0.898511566
  S    1.993830000   0.000000000   0.000000000
