6
charge=0 charge_a=0 charge_b=0 selection_a=1 selection_b=2-6 scaling=1.10 benchmark_Eint=-0.390 benchmark_unit=kcal/mol group=NobleGases contact=Xe-I
 Xe   -2.100000000   0.000000000   0.000000000
  C    1.897560000  -0.000289228  -2.155722830
  I    1.897560000  -0.000000000  -0.000000000
  H    1.897560000   1.033158675  -2.479255564
  H    2.792592572  -0.516189999  -2.479871081
  H    1.003874104  -0.516679448  -2.479814886
