17
charge=0 charge_a=0 charge_b=0 selection_a=1-12 selection_b=13-17 scaling=1.5 benchmark_Eint=-0.592 benchmark_unit=kcal/mol group=Cl
  C    0.030000000  -0.062000000  -1.873000000
  C   -1.354000000  -0.051000000  -1.733000000
  C    0.748000000   1.123000000  -1.767000000
  C   -2.018000000   1.145000000  -1.487000000
  C    0.084000000   2.319000000  -1.521000000
  C   -1.299000000   2.330000000  -1.381000000
  H    0.546000000  -0.993000000  -2.062000000
  H   -1.912000000  -0.973000000  -1.813000000
  H    1.824000000   1.114000000  -1.872000000
  H   -3.093000000   1.153000000  -1.375000000
  H    0.643000000   3.240000000  -1.435000000
  H   -1.815000000   3.259000000  -1.186000000
  F   -0.651000000   0.896500000   5.542500000
  F    1.499000000   0.886500000   5.322500000
  F    0.423000000  -0.977500000   5.511500000
 Cl    0.197000000   0.175500000   3.242500000
  C    0.376000000   0.248500000   4.994500000
