18
charge=0 charge_a=0 charge_b=0 selection_a=1-13 selection_b=14-18 scaling=1.0 benchmark_Eint=-1.692 benchmark_unit=kcal/mol group=Cl
  N    0.163000000   0.033000000  -1.503000000
  C   -0.287000000  -1.322000000  -1.753000000
  C   -0.876000000   1.006000000  -1.772000000
  C    1.390000000   0.338000000  -2.211000000
  H   -1.165000000  -1.536000000  -1.144000000
  H    0.496000000  -2.027000000  -1.476000000
  H   -0.548000000  -1.496000000  -2.810000000
  H   -1.753000000   0.785000000  -1.164000000
  H   -1.185000000   1.018000000  -2.831000000
  H   -0.525000000   2.003000000  -1.510000000
  H    1.732000000   1.337000000  -1.944000000
  H    1.271000000   0.298000000  -3.308000000
  H    2.165000000  -0.374000000  -1.930000000
 Cl    0.047000000   0.030000000   1.591000000
  C   -0.196000000  -0.017000000   3.369000000
  H   -0.994000000   0.672000000   3.627000000
  H   -0.464000000  -1.028000000   3.655000000
  H    0.729000000   0.280000000   3.852000000
