25
charge=0 charge_a=0 charge_b=0 selection_a=1-13 selection_b=14-25 scaling=0.95 benchmark_Eint=-2.094 benchmark_unit=kcal/mol group=Cl
  N   -0.030000000  -0.017000000  -1.425000000
  C   -0.527000000  -1.293000000  -1.899000000
  C   -0.863000000   1.087000000  -1.858000000
  C    1.363000000   0.186000000  -1.766000000
  H   -1.552000000  -1.438000000  -1.562000000
  H    0.082000000  -2.100000000  -1.492000000
  H   -0.513000000  -1.374000000  -3.000000000
  H   -1.887000000   0.931000000  -1.521000000
  H   -0.877000000   1.207000000  -2.955000000
  H   -0.500000000   2.016000000  -1.420000000
  H    1.717000000   1.119000000  -1.329000000
  H    1.534000000   0.230000000  -2.855000000
  H    1.964000000  -0.627000000  -1.361000000
 Cl   -0.043300000  -0.020800000   1.451600000
  C   -0.014300000  -0.005800000   3.196600000
  C    0.957700000  -0.730800000   3.871600000
  C   -0.964300000   0.731200000   3.890600000
  C    0.975700000  -0.715800000   5.260600000
  C   -0.936300000   0.739200000   5.279600000
  C    0.030700000   0.018200000   5.968600000
  H    1.688700000  -1.297800000   3.314600000
  H   -1.713300000   1.289200000   3.348600000
  H    1.731700000  -1.279800000   5.788600000
  H   -1.675300000   1.312200000   5.822600000
  H    0.048700000   0.027200000   7.048600000
