12
charge=0 charge_a=0 charge_b=0 selection_a=1-10 selection_b=11-12 scaling=1.05 benchmark_Eint=-5.872 benchmark_unit=kcal/mol group=Cl
  N   -1.434000000   0.001000000   0.000000000
  N   -4.207000000   0.003000000   0.000000000
  C   -2.120000000  -1.137000000   0.000000000
  C   -3.510000000  -1.130000000   0.000000000
  C   -2.118000000   1.139000000   0.000000000
  C   -3.509000000   1.135000000   0.000000000
  H   -1.553000000  -2.058000000   0.000000000
  H   -4.068000000  -2.058000000   0.000000000
  H   -1.550000000   2.060000000   0.000000000
  H   -4.065000000   2.063000000   0.000000000
 Cl    1.165800000  -0.001100000   0.000000000
 Cl    3.234800000  -0.002100000   0.000000000
