15
charge=0 charge_a=0 charge_b=0 selection_a=1-10 selection_b=11-15 scaling=1.5 benchmark_Eint=-0.163 benchmark_unit=kcal/mol group=Cl
  N   -1.578000000  -0.742000000   0.033000000
  N   -4.145000000   0.362000000  -0.029000000
  C   -2.670000000  -1.502000000   0.065000000
  C   -3.947000000  -0.952000000   0.034000000
  C   -1.775000000   0.572000000  -0.029000000
  C   -3.052000000   1.121000000  -0.060000000
  H   -2.527000000  -2.574000000   0.116000000
  H   -4.825000000  -1.585000000   0.060000000
  H   -0.893000000   1.200000000  -0.055000000
  H   -3.195000000   2.193000000  -0.111000000
 Cl    3.339000000  -0.002500000   0.013500000
  C    4.994000000   0.688500000  -0.013500000
  H    5.116000000   1.323500000   0.856500000
  H    5.707000000  -0.127500000   0.010500000
  H    5.111000000   1.265500000  -0.924500000
