8
charge=0 charge_a=0 charge_b=0 selection_a=1-2 selection_b=3-8 scaling=0.9 benchmark_Eint=-2.068 benchmark_unit=kcal/mol group=Cl
 Cl    1.353000000   0.000000000   0.000000000
 Cl    3.377000000   0.000000000   0.000000000
  N   -1.146300000   0.000000000   0.000000000
  C   -3.745300000   0.000000000   0.000000000
  C   -2.293300000   0.000000000   0.000000000
  H   -4.119300000  -0.828000000   0.599000000
  H   -4.119300000  -0.104000000  -1.017000000
  H   -4.119300000   0.933000000   0.418000000
