25
charge=0 charge_a=0 charge_b=0 selection_a=1-13 selection_b=14-25 scaling=2.0 benchmark_Eint=-0.024 benchmark_unit=kcal/mol group=Cl
  N   -0.030000000  -0.017000000  -1.425000000
  C   -0.527000000  -1.293000000  -1.899000000
  C   -0.863000000   1.087000000  -1.858000000
  C    1.363000000   0.186000000  -1.766000000
  H   -1.552000000  -1.438000000  -1.562000000
  H    0.082000000  -2.100000000  -1.492000000
  H   -0.513000000  -1.374000000  -3.000000000
  H   -1.887000000   0.931000000  -1.521000000
  H   -0.877000000   1.207000000  -2.955000000
  H   -0.500000000   2.016000000  -1.420000000
  H    1.717000000   1.119000000  -1.329000000
  H    1.534000000   0.230000000  -2.855000000
  H    1.964000000  -0.627000000  -1.361000000
 Cl   -0.058000000  -0.025000000   4.631000000
  C   -0.029000000  -0.010000000   6.376000000
  C    0.943000000  -0.735000000   7.051000000
  C   -0.979000000   0.727000000   7.070000000
  C    0.961000000  -0.720000000   8.440000000
  C   -0.951000000   0.735000000   8.459000000
  C    0.016000000   0.014000000   9.148000000
  H    1.674000000  -1.302000000   6.494000000
  H   -1.728000000   1.285000000   6.528000000
  H    1.717000000  -1.284000000   8.968000000
  H   -1.690000000   1.308000000   9.002000000
  H    0.034000000   0.023000000  10.228000000
