8
charge=0 charge_a=0 charge_b=0 selection_a=1-2 selection_b=3-8 scaling=1.25 benchmark_Eint=-2.170 benchmark_unit=kcal/mol group=Cl
 Cl    1.353000000   0.000000000   0.000000000
 Cl    3.377000000   0.000000000   0.000000000
  N   -2.118250000   0.000000000   0.000000000
  C   -4.717250000   0.000000000   0.000000000
  C   -3.265250000   0.000000000   0.000000000
  H   -5.091250000  -0.828000000   0.599000000
  H   -5.091250000  -0.104000000  -1.017000000
  H   -5.091250000   0.933000000   0.418000000
