15
charge=0 charge_a=0 charge_b=0 selection_a=1-10 selection_b=11-15 scaling=0.8 benchmark_Eint=3.010 benchmark_unit=kcal/mol group=Cl
  N   -1.447000000  -0.254000000  -0.002000000
  N   -4.211000000   0.131000000   0.004000000
  C   -2.296000000  -1.279000000  -0.002000000
  C   -3.673000000  -1.085000000   0.001000000
  C   -1.983000000   0.963000000   0.001000000
  C   -3.360000000   1.155000000   0.004000000
  H   -1.872000000  -2.275000000  -0.005000000
  H   -4.352000000  -1.928000000   0.001000000
  H   -1.302000000   1.805000000   0.001000000
  H   -3.783000000   2.151000000   0.006000000
  F    2.977000000   1.354800000   0.355200000
  F    3.183000000  -0.117200000  -1.214800000
  F    3.266000000  -0.728200000   0.857200000
 Cl    0.929000000  -0.137200000  -0.002800000
  C    2.676000000   0.104800000  -0.001800000
