25
charge=0 charge_a=0 charge_b=0 selection_a=1-13 selection_b=14-25 scaling=1.05 benchmark_Eint=-2.162 benchmark_unit=kcal/mol group=Cl
  N   -0.030000000  -0.017000000  -1.425000000
  C   -0.527000000  -1.293000000  -1.899000000
  C   -0.863000000   1.087000000  -1.858000000
  C    1.363000000   0.186000000  -1.766000000
  H   -1.552000000  -1.438000000  -1.562000000
  H    0.082000000  -2.100000000  -1.492000000
  H   -0.513000000  -1.374000000  -3.000000000
  H   -1.887000000   0.931000000  -1.521000000
  H   -0.877000000   1.207000000  -2.955000000
  H   -0.500000000   2.016000000  -1.420000000
  H    1.717000000   1.119000000  -1.329000000
  H    1.534000000   0.230000000  -2.855000000
  H    1.964000000  -0.627000000  -1.361000000
 Cl   -0.044700000  -0.021200000   1.754400000
  C   -0.015700000  -0.006200000   3.499400000
  C    0.956300000  -0.731200000   4.174400000
  C   -0.965700000   0.730800000   4.193400000
  C    0.974300000  -0.716200000   5.563400000
  C   -0.937700000   0.738800000   5.582400000
  C    0.029300000   0.017800000   6.271400000
  H    1.687300000  -1.298200000   3.617400000
  H   -1.714700000   1.288800000   3.651400000
  H    1.730300000  -1.280200000   6.091400000
  H   -1.676700000   1.311800000   6.125400000
  H    0.047300000   0.026800000   7.351400000
