22
charge=0 charge_a=0 charge_b=0 selection_a=1-12 selection_b=13-22 scaling=0.95 benchmark_Eint=-1.784 benchmark_unit=kcal/mol group=Cl
  C    6.043000000   0.104000000  -0.172000000
  C    5.537000000   1.365000000   0.121000000
  C    4.189000000   1.532000000   0.412000000
  C    3.353000000   0.423000000   0.408000000
  C    3.844000000  -0.843000000   0.119000000
  C    5.194000000  -0.996000000  -0.171000000
 Cl    1.660000000   0.625000000   0.772000000
  H    3.787000000   2.507000000   0.641000000
  H    3.177000000  -1.691000000   0.122000000
  H    6.191000000   2.225000000   0.123000000
  H    5.579000000  -1.980000000  -0.397000000
  H    7.092000000  -0.021000000  -0.397000000
  N   -1.372400000   1.062000000   0.597200000
  C   -2.567400000   1.172000000   1.172200000
  C   -3.719400000   1.400000000   0.428200000
  N   -3.688400000   1.520000000  -0.896800000
  C   -2.492400000   1.409000000  -1.469800000
  C   -1.339400000   1.182000000  -0.727800000
  H   -2.609400000   1.077000000   2.249200000
  H   -4.684400000   1.487000000   0.911200000
  H   -0.372400000   1.094000000  -1.205800000
  H   -2.449400000   1.504000000  -2.547800000
