15
charge=0 charge_a=0 charge_b=0 selection_a=1-10 selection_b=11-15 scaling=1.5 benchmark_Eint=-0.784 benchmark_unit=kcal/mol group=Cl
  N   -1.447000000  -0.254000000  -0.002000000
  N   -4.211000000   0.131000000   0.004000000
  C   -2.296000000  -1.279000000  -0.002000000
  C   -3.673000000  -1.085000000   0.001000000
  C   -1.983000000   0.963000000   0.001000000
  C   -3.360000000   1.155000000   0.004000000
  H   -1.872000000  -2.275000000  -0.005000000
  H   -4.352000000  -1.928000000   0.001000000
  H   -1.302000000   1.805000000   0.001000000
  H   -3.783000000   2.151000000   0.006000000
  F    5.056000000   1.457000000   0.354500000
  F    5.262000000  -0.015000000  -1.215500000
  F    5.345000000  -0.626000000   0.856500000
 Cl    3.008000000  -0.035000000  -0.003500000
  C    4.755000000   0.207000000  -0.002500000
