24
charge=0 charge_a=0 charge_b=0 selection_a=1-12 selection_b=13-24 scaling=1.0 benchmark_Eint=-0.910 benchmark_unit=kcal/mol group=Cl
 Cl   -1.677000000   0.000000000   0.000000000
  C   -3.416000000   0.000000000   0.000000000
  C   -4.103000000   1.208000000   0.000000000
  C   -4.102000000  -1.208000000   0.000000000
  C   -5.491000000   1.201000000   0.000000000
  C   -5.491000000  -1.201000000   0.000000000
  C   -6.190000000   0.000000000   0.000000000
  H   -3.552000000   2.136000000   0.000000000
  H   -3.552000000  -2.136000000   0.000000000
  H   -6.027000000   2.140000000   0.000000000
  H   -6.026000000  -2.140000000   0.000000000
  H   -7.270000000   0.000000000   0.000000000
  O    1.444000000   0.000000000   0.000000000
  N    2.717000000   0.000000000   0.000000000
  C    3.414000000   1.175000000   0.000000000
  C    3.414000000  -1.175000000   0.000000000
  C    4.791000000   1.189000000   0.000000000
  C    4.791000000  -1.189000000   0.000000000
  C    5.509000000   0.000000000   0.000000000
  H    2.790000000   2.052000000   0.000000000
  H    2.790000000  -2.052000000   0.000000000
  H    5.293000000   2.145000000   0.000000000
  H    5.293000000  -2.145000000   0.000000000
  H    6.588000000   0.000000000   0.000000000
