12
charge=0 charge_a=0 charge_b=0 selection_a=1-5 selection_b=6-12 scaling=1.0 benchmark_Eint=-2.138 benchmark_unit=kcal/mol group=Cl
  C   -2.757000000  -0.068000000   0.021000000
 Cl   -1.009000000  -0.267000000   0.092000000
  F   -3.075000000   1.094000000  -0.549000000
  F   -3.283000000  -0.091000000   1.246000000
  F   -3.313000000  -1.049000000  -0.691000000
  O    2.017000000  -0.899000000   0.278000000
  N    2.735000000   0.081000000   0.176000000
  O    2.353000000   1.221000000  -0.004000000
  C    4.208000000  -0.154000000   0.295000000
  H    4.720000000   0.780000000   0.103000000
  H    4.471000000  -0.924000000  -0.422000000
  H    4.391000000  -0.515000000   1.303000000
