15
charge=0 charge_a=0 charge_b=0 selection_a=1-5 selection_b=6-15 scaling=0.9 benchmark_Eint=-2.084 benchmark_unit=kcal/mol group=Cl
  C    2.817000000  -1.649000000  -0.022000000
 Cl    1.523000000  -0.454000000  -0.021000000
  F    4.007000000  -1.051000000   0.060000000
  F    2.789000000  -2.373000000  -1.141000000
  F    2.695000000  -2.477000000   1.016000000
  O   -0.351700000   1.420700000  -0.012000000
  C   -0.163700000   2.613700000   0.052000000
  C   -1.311700000   3.595700000   0.050000000
  C    1.225300000   3.200700000   0.140000000
  H    1.972300000   2.413700000   0.137000000
  H    1.398300000   3.875700000  -0.700000000
  H    1.322300000   3.797700000   1.049000000
  H   -1.289700000   4.199700000   0.958000000
  H   -1.212700000   4.286700000  -0.790000000
  H   -2.257700000   3.068700000  -0.018000000
