14
charge=0 charge_a=0 charge_b=0 selection_a=1-2 selection_b=3-14 scaling=2.0 benchmark_Eint=-0.635 benchmark_unit=kcal/mol group=Cl
 Cl    0.159000000  -0.252000000  -0.250000000
 Cl    1.456000000  -1.139000000  -1.589000000
  O   -3.171000000   1.722000000   2.710000000
  N   -4.309000000   1.421000000   2.181000000
  C   -5.130000000   0.531000000   2.797000000
  C   -4.688000000   1.983000000   1.003000000
  C   -6.351000000   0.200000000   2.251000000
  C   -5.900000000   1.670000000   0.429000000
  C   -6.755000000   0.769000000   1.050000000
  H   -4.737000000   0.132000000   3.716000000
  H   -3.967000000   2.664000000   0.586000000
  H   -6.974000000  -0.509000000   2.773000000
  H   -6.163000000   2.137000000  -0.507000000
  H   -7.708000000   0.516000000   0.610000000
