12
charge=0 charge_a=0 charge_b=0 selection_a=1-5 selection_b=6-12 scaling=1.05 benchmark_Eint=-2.026 benchmark_unit=kcal/mol group=Cl
  C   -2.757000000  -0.068000000   0.021000000
 Cl   -1.009000000  -0.267000000   0.092000000
  F   -3.075000000   1.094000000  -0.549000000
  F   -3.283000000  -0.091000000   1.246000000
  F   -3.313000000  -1.049000000  -0.691000000
  O    2.168300000  -0.930600000   0.287300000
  N    2.886300000   0.049400000   0.185300000
  O    2.504300000   1.189400000   0.005300000
  C    4.359300000  -0.185600000   0.304300000
  H    4.871300000   0.748400000   0.112300000
  H    4.622300000  -0.955600000  -0.412700000
  H    4.542300000  -0.546600000   1.312300000
