14
charge=0 charge_a=0 charge_b=0 selection_a=1-2 selection_b=3-14 scaling=0.95 benchmark_Eint=-6.405 benchmark_unit=kcal/mol group=Cl
 Cl    0.159000000  -0.252000000  -0.250000000
 Cl    1.456000000  -1.139000000  -1.589000000
  O   -1.422750000   0.685650000   1.156000000
  N   -2.560750000   0.384650000   0.627000000
  C   -3.381750000  -0.505350000   1.243000000
  C   -2.939750000   0.946650000  -0.551000000
  C   -4.602750000  -0.836350000   0.697000000
  C   -4.151750000   0.633650000  -1.125000000
  C   -5.006750000  -0.267350000  -0.504000000
  H   -2.988750000  -0.904350000   2.162000000
  H   -2.218750000   1.627650000  -0.968000000
  H   -5.225750000  -1.545350000   1.219000000
  H   -4.414750000   1.100650000  -2.061000000
  H   -5.959750000  -0.520350000  -0.944000000
