14
charge=0 charge_a=0 charge_b=0 selection_a=1-9 selection_b=10-14 scaling=1.1 benchmark_Eint=-1.620 benchmark_unit=kcal/mol group=Cl
  O   -1.443000000  -0.299000000  -0.213000000
  C   -3.381000000   0.746000000   0.131000000
  C   -3.626000000  -0.663000000   0.046000000
  C   -2.047000000   0.909000000  -0.032000000
  C   -2.421000000  -1.246000000  -0.161000000
  H   -4.104000000   1.525000000   0.292000000
  H   -4.572000000  -1.167000000   0.130000000
  H   -1.399000000   1.766000000  -0.046000000
  H   -2.100000000  -2.262000000  -0.288000000
  F    3.874000000   1.461400000   0.166100000
  F    4.229000000  -0.291600000  -1.046900000
  F    4.128000000  -0.468600000   1.104100000
 Cl    1.879000000  -0.118600000  -0.057900000
  C    3.618000000   0.159400000   0.047100000
