24
charge=0 charge_a=0 charge_b=0 selection_a=1-12 selection_b=13-24 scaling=0.85 benchmark_Eint=-0.006 benchmark_unit=kcal/mol group=Cl
 Cl   -1.677000000   0.000000000   0.000000000
  C   -3.416000000   0.000000000   0.000000000
  C   -4.103000000   1.208000000   0.000000000
  C   -4.102000000  -1.208000000   0.000000000
  C   -5.491000000   1.201000000   0.000000000
  C   -5.491000000  -1.201000000   0.000000000
  C   -6.190000000   0.000000000   0.000000000
  H   -3.552000000   2.136000000   0.000000000
  H   -3.552000000  -2.136000000   0.000000000
  H   -6.027000000   2.140000000   0.000000000
  H   -6.026000000  -2.140000000   0.000000000
  H   -7.270000000   0.000000000   0.000000000
  O    0.975850000   0.000000000   0.000000000
  N    2.248850000   0.000000000   0.000000000
  C    2.945850000   1.175000000   0.000000000
  C    2.945850000  -1.175000000   0.000000000
  C    4.322850000   1.189000000   0.000000000
  C    4.322850000  -1.189000000   0.000000000
  C    5.040850000   0.000000000   0.000000000
  H    2.321850000   2.052000000   0.000000000
  H    2.321850000  -2.052000000   0.000000000
  H    4.824850000   2.145000000   0.000000000
  H    4.824850000  -2.145000000   0.000000000
  H    6.119850000   0.000000000   0.000000000
