15
charge=0 charge_a=0 charge_b=0 selection_a=1-5 selection_b=6-15 scaling=1.05 benchmark_Eint=-2.763 benchmark_unit=kcal/mol group=Cl
  C    2.817000000  -1.649000000  -0.022000000
 Cl    1.523000000  -0.454000000  -0.021000000
  F    4.007000000  -1.051000000   0.060000000
  F    2.789000000  -2.373000000  -1.141000000
  F    2.695000000  -2.477000000   1.016000000
  O   -0.664150000   1.733150000  -0.010500000
  C   -0.476150000   2.926150000   0.053500000
  C   -1.624150000   3.908150000   0.051500000
  C    0.912850000   3.513150000   0.141500000
  H    1.659850000   2.726150000   0.138500000
  H    1.085850000   4.188150000  -0.698500000
  H    1.009850000   4.110150000   1.050500000
  H   -1.602150000   4.512150000   0.959500000
  H   -1.525150000   4.599150000  -0.788500000
  H   -2.570150000   3.381150000  -0.016500000
