21
charge=0 charge_a=0 charge_b=0 selection_a=1-9 selection_b=10-21 scaling=0.9 benchmark_Eint=-1.142 benchmark_unit=kcal/mol group=Cl
  O   -1.544000000   0.827000000   0.286000000
  C   -3.686000000   0.248000000   0.076000000
  C   -2.868000000  -0.860000000  -0.320000000
  C   -2.833000000   1.238000000   0.432000000
  C   -1.584000000  -0.454000000  -0.173000000
  H   -4.760000000   0.294000000   0.092000000
  H   -3.197000000  -1.823000000  -0.666000000
  H   -2.970000000   2.241000000   0.792000000
  H   -0.632000000  -0.921000000  -0.339000000
 Cl    1.418800000   0.863900000   0.309400000
  C    3.071800000   0.338900000   0.123400000
  C    3.719800000  -0.261100000   1.193400000
  C    3.713800000   0.527900000  -1.092600000
  C    5.035800000  -0.679100000   1.038400000
  C    5.029800000   0.105900000  -1.233600000
  C    5.693800000  -0.497100000  -0.172600000
  H    3.200800000  -0.397100000   2.130400000
  H    3.189800000   0.997900000  -1.910600000
  H    5.544800000  -1.146100000   1.868400000
  H    5.534800000   0.250900000  -2.177600000
  H    6.716800000  -0.824100000  -0.287600000
