12
charge=0 charge_a=0 charge_b=0 selection_a=1-5 selection_b=6-12 scaling=0.8 benchmark_Eint=1.633 benchmark_unit=kcal/mol group=Cl
  C   -2.757000000  -0.068000000   0.021000000
 Cl   -1.009000000  -0.267000000   0.092000000
  F   -3.075000000   1.094000000  -0.549000000
  F   -3.283000000  -0.091000000   1.246000000
  F   -3.313000000  -1.049000000  -0.691000000
  O    1.411800000  -0.772600000   0.240800000
  N    2.129800000   0.207400000   0.138800000
  O    1.747800000   1.347400000  -0.041200000
  C    3.602800000  -0.027600000   0.257800000
  H    4.114800000   0.906400000   0.065800000
  H    3.865800000  -0.797600000  -0.459200000
  H    3.785800000  -0.388600000   1.265800000
