15
charge=0 charge_a=0 charge_b=0 selection_a=1-5 selection_b=6-15 scaling=0.95 benchmark_Eint=-2.724 benchmark_unit=kcal/mol group=Cl
  C    2.817000000  -1.649000000  -0.022000000
 Cl    1.523000000  -0.454000000  -0.021000000
  F    4.007000000  -1.051000000   0.060000000
  F    2.789000000  -2.373000000  -1.141000000
  F    2.695000000  -2.477000000   1.016000000
  O   -0.455850000   1.524850000  -0.011500000
  C   -0.267850000   2.717850000   0.052500000
  C   -1.415850000   3.699850000   0.050500000
  C    1.121150000   3.304850000   0.140500000
  H    1.868150000   2.517850000   0.137500000
  H    1.294150000   3.979850000  -0.699500000
  H    1.218150000   3.901850000   1.049500000
  H   -1.393850000   4.303850000   0.958500000
  H   -1.316850000   4.390850000  -0.789500000
  H   -2.361850000   3.172850000  -0.017500000
