15
charge=0 charge_a=0 charge_b=0 selection_a=1-5 selection_b=6-15 scaling=2.0 benchmark_Eint=-0.251 benchmark_unit=kcal/mol group=Cl
  C    2.817000000  -1.649000000  -0.022000000
 Cl    1.523000000  -0.454000000  -0.021000000
  F    4.007000000  -1.051000000   0.060000000
  F    2.789000000  -2.373000000  -1.141000000
  F    2.695000000  -2.477000000   1.016000000
  O   -2.643000000   3.712000000  -0.001000000
  C   -2.455000000   4.905000000   0.063000000
  C   -3.603000000   5.887000000   0.061000000
  C   -1.066000000   5.492000000   0.151000000
  H   -0.319000000   4.705000000   0.148000000
  H   -0.893000000   6.167000000  -0.689000000
  H   -0.969000000   6.089000000   1.060000000
  H   -3.581000000   6.491000000   0.969000000
  H   -3.504000000   6.578000000  -0.779000000
  H   -4.549000000   5.360000000  -0.007000000
