9
charge=0 charge_a=0 charge_b=0 selection_a=1-7 selection_b=8-9 scaling=0.8 benchmark_Eint=3.196 benchmark_unit=kcal/mol group=Cl
  C    3.955000000   1.019000000   0.048000000
  N    2.544000000   1.464000000  -0.174000000
  O    1.674000000   0.635000000   0.046000000
  O    2.355000000   2.602000000  -0.552000000
  H    4.613000000   1.846000000  -0.184000000
  H    4.126000000   0.166000000  -0.601000000
  H    4.034000000   0.711000000   1.085000000
 Cl   -0.448400000   1.250200000  -0.268400000
 Cl   -2.408400000   1.678200000  -0.514400000
