24
charge=0 charge_a=0 charge_b=0 selection_a=1-12 selection_b=13-24 scaling=2.0 benchmark_Eint=0.165 benchmark_unit=kcal/mol group=Cl
 Cl   -1.677000000   0.000000000   0.000000000
  C   -3.416000000   0.000000000   0.000000000
  C   -4.103000000   1.208000000   0.000000000
  C   -4.102000000  -1.208000000   0.000000000
  C   -5.491000000   1.201000000   0.000000000
  C   -5.491000000  -1.201000000   0.000000000
  C   -6.190000000   0.000000000   0.000000000
  H   -3.552000000   2.136000000   0.000000000
  H   -3.552000000  -2.136000000   0.000000000
  H   -6.027000000   2.140000000   0.000000000
  H   -6.026000000  -2.140000000   0.000000000
  H   -7.270000000   0.000000000   0.000000000
  O    4.565000000   0.000000000   0.000000000
  N    5.838000000   0.000000000   0.000000000
  C    6.535000000   1.175000000   0.000000000
  C    6.535000000  -1.175000000   0.000000000
  C    7.912000000   1.189000000   0.000000000
  C    7.912000000  -1.189000000   0.000000000
  C    8.630000000   0.000000000   0.000000000
  H    5.911000000   2.052000000   0.000000000
  H    5.911000000  -2.052000000   0.000000000
  H    8.414000000   2.145000000   0.000000000
  H    8.414000000  -2.145000000   0.000000000
  H    9.709000000   0.000000000   0.000000000
