11
charge=0 charge_a=0 charge_b=0 selection_a=1-9 selection_b=10-11 scaling=1.05 benchmark_Eint=-2.550 benchmark_unit=kcal/mol group=Cl
  O   -1.590000000   0.108000000   0.456000000
  C   -3.526000000   0.723000000  -0.456000000
  C   -3.543000000  -0.696000000  -0.251000000
  C   -2.323000000   1.157000000  -0.014000000
  C   -2.349000000  -1.014000000   0.300000000
  H   -4.308000000   1.330000000  -0.876000000
  H   -4.339000000  -1.379000000  -0.485000000
  H   -1.853000000   2.121000000   0.038000000
  H   -1.900000000  -1.934000000   0.624000000
 Cl    1.312200000   0.011400000   0.021300000
 Cl    3.300200000  -0.059600000  -0.311700000
