14
charge=0 charge_a=0 charge_b=0 selection_a=1-9 selection_b=10-14 scaling=0.95 benchmark_Eint=-1.851 benchmark_unit=kcal/mol group=Cl
  O   -1.443000000  -0.299000000  -0.213000000
  C   -3.381000000   0.746000000   0.131000000
  C   -3.626000000  -0.663000000   0.046000000
  C   -2.047000000   0.909000000  -0.032000000
  C   -2.421000000  -1.246000000  -0.161000000
  H   -4.104000000   1.525000000   0.292000000
  H   -4.572000000  -1.167000000   0.130000000
  H   -1.399000000   1.766000000  -0.046000000
  H   -2.100000000  -2.262000000  -0.288000000
  F    3.421000000   1.436800000   0.144950000
  F    3.776000000  -0.316200000  -1.068050000
  F    3.675000000  -0.493200000   1.082950000
 Cl    1.426000000  -0.143200000  -0.079050000
  C    3.165000000   0.134800000   0.025950000
