21
charge=0 charge_a=0 charge_b=0 selection_a=1-9 selection_b=10-21 scaling=1.5 benchmark_Eint=-0.269 benchmark_unit=kcal/mol group=Cl
  O   -1.544000000   0.827000000   0.286000000
  C   -3.686000000   0.248000000   0.076000000
  C   -2.868000000  -0.860000000  -0.320000000
  C   -2.833000000   1.238000000   0.432000000
  C   -1.584000000  -0.454000000  -0.173000000
  H   -4.760000000   0.294000000   0.092000000
  H   -3.197000000  -1.823000000  -0.666000000
  H   -2.970000000   2.241000000   0.792000000
  H   -0.632000000  -0.921000000  -0.339000000
 Cl    3.394000000   0.888500000   0.325000000
  C    5.047000000   0.363500000   0.139000000
  C    5.695000000  -0.236500000   1.209000000
  C    5.689000000   0.552500000  -1.077000000
  C    7.011000000  -0.654500000   1.054000000
  C    7.005000000   0.130500000  -1.218000000
  C    7.669000000  -0.472500000  -0.157000000
  H    5.176000000  -0.372500000   2.146000000
  H    5.165000000   1.022500000  -1.895000000
  H    7.520000000  -1.121500000   1.884000000
  H    7.510000000   0.275500000  -2.162000000
  H    8.692000000  -0.799500000  -0.272000000
