17
charge=0 charge_a=0 charge_b=0 selection_a=1-12 selection_b=13-17 scaling=1.05 benchmark_Eint=-3.876 benchmark_unit=kcal/mol group=Cl
  C    5.008000000  -0.284000000   0.313000000
  C    4.567000000   1.021000000   0.493000000
  C    3.342000000   1.417000000   0.006000000
  N    2.533000000   0.546000000  -0.663000000
  C    2.954000000  -0.738000000  -0.843000000
  C    4.174000000  -1.162000000  -0.367000000
  O    1.394000000   0.925000000  -1.103000000
  H    2.930000000   2.406000000   0.108000000
  H    2.254000000  -1.358000000  -1.376000000
  H    5.171000000   1.748000000   1.015000000
  H    4.462000000  -2.189000000  -0.535000000
  H    5.966000000  -0.605000000   0.691000000
 Cl   -0.335350000  -0.526100000   0.851050000
  C   -1.063350000  -1.515100000   2.112050000
  F   -0.850350000  -0.980100000   3.316050000
  F   -0.540350000  -2.744100000   2.106050000
  F   -2.379350000  -1.623100000   1.930050000
