15
charge=0 charge_a=0 charge_b=0 selection_a=1-5 selection_b=6-15 scaling=1.25 benchmark_Eint=-1.716 benchmark_unit=kcal/mol group=Cl
  C    2.817000000  -1.649000000  -0.022000000
 Cl    1.523000000  -0.454000000  -0.021000000
  F    4.007000000  -1.051000000   0.060000000
  F    2.789000000  -2.373000000  -1.141000000
  F    2.695000000  -2.477000000   1.016000000
  O   -1.080750000   2.149750000  -0.008500000
  C   -0.892750000   3.342750000   0.055500000
  C   -2.040750000   4.324750000   0.053500000
  C    0.496250000   3.929750000   0.143500000
  H    1.243250000   3.142750000   0.140500000
  H    0.669250000   4.604750000  -0.696500000
  H    0.593250000   4.526750000   1.052500000
  H   -2.018750000   4.928750000   0.961500000
  H   -1.941750000   5.015750000  -0.786500000
  H   -2.986750000   3.797750000  -0.014500000
