14
charge=0 charge_a=0 charge_b=0 selection_a=1-9 selection_b=10-14 scaling=1.5 benchmark_Eint=-0.451 benchmark_unit=kcal/mol group=Cl
  O   -1.443000000  -0.299000000  -0.213000000
  C   -3.381000000   0.746000000   0.131000000
  C   -3.626000000  -0.663000000   0.046000000
  C   -2.047000000   0.909000000  -0.032000000
  C   -2.421000000  -1.246000000  -0.161000000
  H   -4.104000000   1.525000000   0.292000000
  H   -4.572000000  -1.167000000   0.130000000
  H   -1.399000000   1.766000000  -0.046000000
  H   -2.100000000  -2.262000000  -0.288000000
  F    5.082000000   1.527000000   0.222500000
  F    5.437000000  -0.226000000  -0.990500000
  F    5.336000000  -0.403000000   1.160500000
 Cl    3.087000000  -0.053000000  -0.001500000
  C    4.826000000   0.225000000   0.103500000
