21
charge=0 charge_a=0 charge_b=0 selection_a=1-9 selection_b=10-21 scaling=1.0 benchmark_Eint=-1.467 benchmark_unit=kcal/mol group=Cl
  O   -1.544000000   0.827000000   0.286000000
  C   -3.686000000   0.248000000   0.076000000
  C   -2.868000000  -0.860000000  -0.320000000
  C   -2.833000000   1.238000000   0.432000000
  C   -1.584000000  -0.454000000  -0.173000000
  H   -4.760000000   0.294000000   0.092000000
  H   -3.197000000  -1.823000000  -0.666000000
  H   -2.970000000   2.241000000   0.792000000
  H   -0.632000000  -0.921000000  -0.339000000
 Cl    1.748000000   0.868000000   0.312000000
  C    3.401000000   0.343000000   0.126000000
  C    4.049000000  -0.257000000   1.196000000
  C    4.043000000   0.532000000  -1.090000000
  C    5.365000000  -0.675000000   1.041000000
  C    5.359000000   0.110000000  -1.231000000
  C    6.023000000  -0.493000000  -0.170000000
  H    3.530000000  -0.393000000   2.133000000
  H    3.519000000   1.002000000  -1.908000000
  H    5.874000000  -1.142000000   1.871000000
  H    5.864000000   0.255000000  -2.175000000
  H    7.046000000  -0.820000000  -0.285000000
