12
charge=0 charge_a=0 charge_b=0 selection_a=1-10 selection_b=11-12 scaling=0.8 benchmark_Eint=4.644 benchmark_unit=kcal/mol group=Cl
  C   -1.508000000   2.313000000   0.182000000
  C   -2.478000000   1.160000000   0.157000000
  O   -2.115000000   0.006000000   0.065000000
  C   -3.944000000   1.503000000   0.256000000
  H   -0.502000000   1.975000000  -0.044000000
  H   -1.816000000   3.086000000  -0.524000000
  H   -1.522000000   2.768000000   1.174000000
  H   -4.125000000   2.160000000   1.108000000
  H   -4.248000000   2.052000000  -0.637000000
  H   -4.539000000   0.600000000   0.347000000
 Cl   -0.123800000  -0.586800000  -0.067000000
 Cl    1.818200000  -1.188800000  -0.195000000
