14
charge=0 charge_a=0 charge_b=0 selection_a=1-9 selection_b=10-14 scaling=1.05 benchmark_Eint=-1.813 benchmark_unit=kcal/mol group=Cl
  O   -1.443000000  -0.299000000  -0.213000000
  C   -3.381000000   0.746000000   0.131000000
  C   -3.626000000  -0.663000000   0.046000000
  C   -2.047000000   0.909000000  -0.032000000
  C   -2.421000000  -1.246000000  -0.161000000
  H   -4.104000000   1.525000000   0.292000000
  H   -4.572000000  -1.167000000   0.130000000
  H   -1.399000000   1.766000000  -0.046000000
  H   -2.100000000  -2.262000000  -0.288000000
  F    3.723000000   1.453200000   0.159050000
  F    4.078000000  -0.299800000  -1.053950000
  F    3.977000000  -0.476800000   1.097050000
 Cl    1.728000000  -0.126800000  -0.064950000
  C    3.467000000   0.151200000   0.040050000
