14
charge=0 charge_a=0 charge_b=0 selection_a=1-9 selection_b=10-14 scaling=0.9 benchmark_Eint=-1.385 benchmark_unit=kcal/mol group=Cl
  O   -1.443000000  -0.299000000  -0.213000000
  C   -3.381000000   0.746000000   0.131000000
  C   -3.626000000  -0.663000000   0.046000000
  C   -2.047000000   0.909000000  -0.032000000
  C   -2.421000000  -1.246000000  -0.161000000
  H   -4.104000000   1.525000000   0.292000000
  H   -4.572000000  -1.167000000   0.130000000
  H   -1.399000000   1.766000000  -0.046000000
  H   -2.100000000  -2.262000000  -0.288000000
  F    3.270000000   1.428600000   0.137900000
  F    3.625000000  -0.324400000  -1.075100000
  F    3.524000000  -0.501400000   1.075900000
 Cl    1.275000000  -0.151400000  -0.086100000
  C    3.014000000   0.126600000   0.018900000
