12
charge=0 charge_a=0 charge_b=0 selection_a=1-10 selection_b=11-12 scaling=1.25 benchmark_Eint=-4.888 benchmark_unit=kcal/mol group=Cl
  C   -3.122000000  -0.174000000  -0.005000000
  C   -2.385000000  -1.471000000  -0.002000000
  C   -3.236000000  -2.703000000  -0.004000000
  S   -0.760000000  -1.587000000   0.002000000
  H   -3.773000000  -0.130000000  -0.882000000
  H   -3.779000000  -0.130000000   0.867000000
  H   -2.458000000   0.682000000  -0.003000000
  H   -2.644000000  -3.612000000  -0.002000000
  H   -3.888000000  -2.695000000  -0.880000000
  H   -3.892000000  -2.695000000   0.870000000
 Cl    0.448750000   1.481750000   0.003250000
 Cl    1.257750000   3.461750000   0.003250000
