15
charge=0 charge_a=0 charge_b=0 selection_a=1-10 selection_b=11-15 scaling=1.0 benchmark_Eint=-2.375 benchmark_unit=kcal/mol group=Cl
  C   -2.961000000  -0.196000000   0.062000000
  C   -2.364000000  -1.567000000  -0.026000000
  C   -3.358000000  -2.690000000  -0.025000000
  S   -0.762000000  -1.828000000  -0.115000000
  H   -3.647000000  -0.037000000  -0.774000000
  H   -3.562000000  -0.112000000   0.971000000
  H   -2.204000000   0.580000000   0.058000000
  H   -2.873000000  -3.658000000  -0.091000000
  H   -4.050000000  -2.573000000  -0.863000000
  H   -3.965000000  -2.647000000   0.883000000
  F    0.451000000   3.803000000   0.067000000
  F    2.113000000   3.106000000  -1.127000000
  F    2.218000000   3.014000000   1.030000000
 Cl    0.701000000   1.259000000  -0.054000000
  C    1.408000000   2.878000000  -0.019000000
