11
charge=0 charge_a=0 charge_b=0 selection_a=1-9 selection_b=10-11 scaling=0.8 benchmark_Eint=4.198 benchmark_unit=kcal/mol group=Cl
  S   -0.010000000   0.012000000  -1.524000000
  C   -1.810000000  -0.001000000  -1.667000000
  C    0.311000000   1.783000000  -1.667000000
  H   -2.249000000   0.614000000  -0.886000000
  H   -2.133000000  -1.031000000  -1.538000000
  H   -2.112000000   0.354000000  -2.650000000
  H   -0.221000000   2.321000000  -0.885000000
  H    0.013000000   2.141000000  -2.650000000
  H    1.380000000   1.925000000  -1.538000000
 Cl    0.018800000  -0.022400000   0.566400000
 Cl   -0.065200000   0.077600000   2.703400000
