14
charge=0 charge_a=0 charge_b=0 selection_a=1-9 selection_b=10-14 scaling=0.85 benchmark_Eint=0.335 benchmark_unit=kcal/mol group=Cl
  S   -0.066000000  -0.085000000  -1.810000000
  C   -1.857000000   0.105000000  -1.626000000
  C    0.434000000   1.648000000  -1.657000000
  H   -2.103000000   0.533000000  -0.656000000
  H   -2.294000000  -0.888000000  -1.696000000
  H   -2.264000000   0.728000000  -2.420000000
  H    0.148000000   2.050000000  -0.686000000
  H   -0.005000000   2.250000000  -2.451000000
  H    1.517000000   1.679000000  -1.747000000
  F   -1.381400000   0.032400000   3.098200000
  F    0.411600000   1.239400000   3.074200000
  F    0.547600000  -0.892600000   3.402200000
 Cl    0.049600000  -0.200600000   0.988200000
  C   -0.100400000   0.056400000   2.732200000
