14
charge=0 charge_a=0 charge_b=0 selection_a=1-9 selection_b=10-14 scaling=1.0 benchmark_Eint=-2.944 benchmark_unit=kcal/mol group=Cl
  S   -0.066000000  -0.085000000  -1.810000000
  C   -1.857000000   0.105000000  -1.626000000
  C    0.434000000   1.648000000  -1.657000000
  H   -2.103000000   0.533000000  -0.656000000
  H   -2.294000000  -0.888000000  -1.696000000
  H   -2.264000000   0.728000000  -2.420000000
  H    0.148000000   2.050000000  -0.686000000
  H   -0.005000000   2.250000000  -2.451000000
  H    1.517000000   1.679000000  -1.747000000
  F   -1.361000000   0.012000000   3.592000000
  F    0.432000000   1.219000000   3.568000000
  F    0.568000000  -0.913000000   3.896000000
 Cl    0.070000000  -0.221000000   1.482000000
  C   -0.080000000   0.036000000   3.226000000
