14
charge=0 charge_a=0 charge_b=0 selection_a=1-9 selection_b=10-14 scaling=0.95 benchmark_Eint=-1.822 benchmark_unit=kcal/mol group=Cl
  S   -0.012000000  -0.004000000  -2.040000000
  C   -1.781000000  -0.023000000  -1.654000000
  C    0.354000000   1.727000000  -1.658000000
  H   -1.947000000   0.222000000  -0.607000000
  H   -2.140000000  -1.031000000  -1.843000000
  H   -2.326000000   0.672000000  -2.292000000
  H    0.150000000   1.940000000  -0.611000000
  H   -0.221000000   2.397000000  -2.295000000
  H    1.414000000   1.880000000  -1.849000000
 Cl    0.148550000  -0.194000000   1.341050000
  C   -0.100450000   0.111000000   3.092050000
  H   -1.164450000   0.083000000   3.299050000
  H    0.415550000  -0.662000000   3.651050000
  H    0.306550000   1.087000000   3.332050000
