14
charge=0 charge_a=0 charge_b=0 selection_a=1-9 selection_b=10-14 scaling=2.0 benchmark_Eint=-0.140 benchmark_unit=kcal/mol group=Cl
  S   -0.066000000  -0.085000000  -1.810000000
  C   -1.857000000   0.105000000  -1.626000000
  C    0.434000000   1.648000000  -1.657000000
  H   -2.103000000   0.533000000  -0.656000000
  H   -2.294000000  -0.888000000  -1.696000000
  H   -2.264000000   0.728000000  -2.420000000
  H    0.148000000   2.050000000  -0.686000000
  H   -0.005000000   2.250000000  -2.451000000
  H    1.517000000   1.679000000  -1.747000000
  F   -1.225000000  -0.124000000   6.884000000
  F    0.568000000   1.083000000   6.860000000
  F    0.704000000  -1.049000000   7.188000000
 Cl    0.206000000  -0.357000000   4.774000000
  C    0.056000000  -0.100000000   6.518000000
