4
charge=0 charge_a=0 charge_b=0 selection_a=1-2 selection_b=3-4 scaling=1.1 benchmark_Eint=-0.541 benchmark_unit=kcal/mol group=Cl
  F   -0.044000000   0.000000000  -1.311000000
  F   -1.394000000   0.000000000  -1.668000000
 Cl   -0.037400000   0.000000000   2.079200000
 Cl    0.078600000   0.000000000   4.086200000
