4
charge=0 charge_a=0 charge_b=0 selection_a=1-2 selection_b=3-4 scaling=1.25 benchmark_Eint=-0.762 benchmark_unit=kcal/mol group=Cl
 Cl   -0.009000000   0.000000000  -1.576000000
 Cl   -2.012000000   0.000000000  -1.718000000
 Cl    0.057250000   0.000000000   2.450250000
 Cl   -0.019750000   0.000000000   4.464250000
