4
charge=0 charge_a=0 charge_b=0 selection_a=1-2 selection_b=3-4 scaling=2.0 benchmark_Eint=-0.059 benchmark_unit=kcal/mol group=Cl
 Cl   -0.009000000   0.000000000  -1.576000000
 Cl   -2.012000000   0.000000000  -1.718000000
 Cl    0.097000000   0.000000000   4.866000000
 Cl    0.020000000   0.000000000   6.880000000
