4
charge=0 charge_a=0 charge_b=0 selection_a=1-2 selection_b=3-4 scaling=1.5 benchmark_Eint=-0.373 benchmark_unit=kcal/mol group=Cl
 Br    0.009000000   0.000000000  -1.657000000
 Br   -2.299000000   0.000000000  -1.761000000
 Cl    0.043500000   0.000000000   3.236000000
 Cl   -0.044500000   0.000000000   5.255000000
