4
charge=0 charge_a=0 charge_b=0 selection_a=1-2 selection_b=3-4 scaling=0.9 benchmark_Eint=-0.102 benchmark_unit=kcal/mol group=Cl
  I    0.025000000   0.000000000  -1.747000000
  I   -2.659000000   0.000000000  -1.812000000
 Cl    0.027700000   0.000000000   1.210400000
 Cl   -0.084300000   0.000000000   3.241400000
