17
charge=0 charge_a=0 charge_b=0 selection_a=1-12 selection_b=13-17 scaling=1.1 benchmark_Eint=-1.484 benchmark_unit=kcal/mol group=Br
  C    0.018000000  -0.032000000  -1.771000000
  C   -1.371000000  -0.034000000  -1.717000000
  C    0.713000000   1.170000000  -1.717000000
  C   -2.064000000   1.165000000  -1.610000000
  C    0.020000000   2.370000000  -1.610000000
  C   -1.369000000   2.367000000  -1.557000000
  H    0.558000000  -0.965000000  -1.847000000
  H   -1.911000000  -0.970000000  -1.751000000
  H    1.794000000   1.171000000  -1.750000000
  H   -3.144000000   1.163000000  -1.563000000
  H    0.561000000   3.304000000  -1.562000000
  H   -1.908000000   3.300000000  -1.469000000
 Br   -0.087600000   0.153900000   2.108700000
  C   -0.057600000   0.099900000   4.064700000
  H   -0.568600000   0.982900000   4.427700000
  H   -0.566600000  -0.802100000   4.379700000
  H    0.978400000   0.092900000   4.380700000
