17
charge=0 charge_a=0 charge_b=0 selection_a=1-12 selection_b=13-17 scaling=0.95 benchmark_Eint=-3.065 benchmark_unit=kcal/mol group=Br
  C    0.143000000   2.312000000  -1.550000000
  C   -1.214000000   2.333000000  -1.251000000
  C   -1.938000000   1.147000000  -1.216000000
  C   -1.305000000  -0.061000000  -1.479000000
  C    0.053000000  -0.084000000  -1.778000000
  C    0.777000000   1.103000000  -1.813000000
  H    0.547000000  -1.024000000  -1.981000000
  H   -1.866000000  -0.985000000  -1.448000000
  H    1.833000000   1.085000000  -2.042000000
  H   -2.992000000   1.164000000  -0.980000000
  H    0.706000000   3.234000000  -1.573000000
  H   -1.706000000   3.273000000  -1.042000000
 Br    0.663850000   0.249450000   1.426350000
  C    0.928850000   0.185450000   3.350350000
  F    1.955850000  -0.605550000   3.653350000
  F    1.180850000   1.403450000   3.826350000
  F   -0.159150000  -0.286550000   3.955350000
