22
charge=0 charge_a=0 charge_b=0 selection_a=1-10 selection_b=11-22 scaling=1.05 benchmark_Eint=-2.453 benchmark_unit=kcal/mol group=Br
  N   -1.387000000   0.000000000  -0.001000000
  N   -4.177000000   0.002000000   0.000000000
  C   -2.086000000  -1.122000000  -0.144000000
  C   -3.476000000  -1.120000000  -0.144000000
  C   -2.084000000   1.123000000   0.143000000
  C   -3.475000000   1.124000000   0.143000000
  H   -1.527000000  -2.041000000  -0.262000000
  H   -4.033000000  -2.041000000  -0.262000000
  H   -1.524000000   2.042000000   0.261000000
  H   -4.031000000   2.045000000   0.261000000
 Br    1.863800000  -0.001050000   0.000050000
  C    3.773800000  -0.002050000   0.000050000
  C    4.457800000  -0.396050000   1.143050000
  C    4.457800000   0.391950000  -1.141950000
  C    5.846800000  -0.394050000   1.136050000
  C    5.847800000   0.388950000  -1.134950000
  C    6.544800000  -0.003050000   0.001050000
  H    3.910800000  -0.699050000   2.023050000
  H    3.912800000   0.694950000  -2.021950000
  H    6.381800000  -0.700050000   2.024050000
  H    6.382800000   0.694950000  -2.022950000
  H    7.625800000  -0.003050000   0.001050000
