15
charge=0 charge_a=0 charge_b=0 selection_a=1-10 selection_b=11-15 scaling=1.0 benchmark_Eint=-4.396 benchmark_unit=kcal/mol group=Br
  N   -1.397000000  -0.002000000  -0.002000000
  N   -4.184000000   0.004000000   0.001000000
  C   -2.096000000  -1.134000000   0.011000000
  C   -3.486000000  -1.129000000   0.013000000
  C   -2.090000000   1.133000000  -0.013000000
  C   -3.481000000   1.134000000  -0.011000000
  H   -1.538000000  -2.061000000   0.021000000
  H   -4.044000000  -2.056000000   0.023000000
  H   -1.528000000   2.058000000  -0.023000000
  H   -4.035000000   2.064000000  -0.021000000
  C    3.469000000  -0.001000000   0.000000000
 Br    1.522000000  -0.003000000  -0.001000000
  F    3.939000000   1.171000000   0.434000000
  F    3.942000000  -0.210000000  -1.229000000
  F    3.941000000  -0.960000000   0.798000000
