25
charge=0 charge_a=0 charge_b=0 selection_a=1-12 selection_b=13-25 scaling=1.25 benchmark_Eint=-2.092 benchmark_unit=kcal/mol group=Br
  C   -0.126000000  -0.098000000   6.160000000
  C    0.900000000  -0.780000000   5.517000000
  C    1.055000000  -0.681000000   4.140000000
  C    0.175000000   0.107000000   3.411000000
  C   -0.855000000   0.794000000   4.041000000
  C   -1.001000000   0.687000000   5.419000000
 Br    0.383000000   0.249000000   1.513000000
  H    1.851000000  -1.209000000   3.637000000
  H   -1.532000000   1.403000000   3.462000000
  H    1.585000000  -1.393000000   6.086000000
  H   -1.801000000   1.221000000   5.911000000
  H   -0.243000000  -0.178000000   7.231000000
  N    0.800500000   0.532750000  -2.169500000
  C    2.216500000   0.742750000  -2.404500000
  C    0.330500000  -0.711250000  -2.748500000
  C    0.003500000   1.667750000  -2.595500000
  H   -0.715500000  -0.866250000  -2.488500000
  H    0.906500000  -1.544250000  -2.347500000
  H    0.419500000  -0.728250000  -3.847500000
  H   -1.041500000   1.500750000  -2.335500000
  H    0.064500000   1.845750000  -3.681500000
  H    0.340500000   2.566750000  -2.082500000
  H    2.543500000   1.647750000  -1.893500000
  H    2.457500000   0.844750000  -3.475500000
  H    2.783500000  -0.097250000  -2.006500000
