22
charge=0 charge_a=0 charge_b=0 selection_a=1-10 selection_b=11-22 scaling=1.5 benchmark_Eint=-0.497 benchmark_unit=kcal/mol group=Br
  N   -1.387000000   0.000000000  -0.001000000
  N   -4.177000000   0.002000000   0.000000000
  C   -2.086000000  -1.122000000  -0.144000000
  C   -3.476000000  -1.120000000  -0.144000000
  C   -2.084000000   1.123000000   0.143000000
  C   -3.475000000   1.124000000   0.143000000
  H   -1.527000000  -2.041000000  -0.262000000
  H   -4.033000000  -2.041000000  -0.262000000
  H   -1.524000000   2.042000000   0.261000000
  H   -4.031000000   2.045000000   0.261000000
 Br    3.257000000  -0.001500000   0.000500000
  C    5.167000000  -0.002500000   0.000500000
  C    5.851000000  -0.396500000   1.143500000
  C    5.851000000   0.391500000  -1.141500000
  C    7.240000000  -0.394500000   1.136500000
  C    7.241000000   0.388500000  -1.134500000
  C    7.938000000  -0.003500000   0.001500000
  H    5.304000000  -0.699500000   2.023500000
  H    5.306000000   0.694500000  -2.021500000
  H    7.775000000  -0.700500000   2.024500000
  H    7.776000000   0.694500000  -2.022500000
  H    9.019000000  -0.003500000   0.001500000
