22
charge=0 charge_a=0 charge_b=0 selection_a=1-10 selection_b=11-22 scaling=0.85 benchmark_Eint=-0.451 benchmark_unit=kcal/mol group=Br
  N   -1.387000000   0.000000000  -0.001000000
  N   -4.177000000   0.002000000   0.000000000
  C   -2.086000000  -1.122000000  -0.144000000
  C   -3.476000000  -1.120000000  -0.144000000
  C   -2.084000000   1.123000000   0.143000000
  C   -3.475000000   1.124000000   0.143000000
  H   -1.527000000  -2.041000000  -0.262000000
  H   -4.033000000  -2.041000000  -0.262000000
  H   -1.524000000   2.042000000   0.261000000
  H   -4.031000000   2.045000000   0.261000000
 Br    1.244600000  -0.000850000  -0.000150000
  C    3.154600000  -0.001850000  -0.000150000
  C    3.838600000  -0.395850000   1.142850000
  C    3.838600000   0.392150000  -1.142150000
  C    5.227600000  -0.393850000   1.135850000
  C    5.228600000   0.389150000  -1.135150000
  C    5.925600000  -0.002850000   0.000850000
  H    3.291600000  -0.698850000   2.022850000
  H    3.293600000   0.695150000  -2.022150000
  H    5.762600000  -0.699850000   2.023850000
  H    5.763600000   0.695150000  -2.023150000
  H    7.006600000  -0.002850000   0.000850000
