25
charge=0 charge_a=0 charge_b=0 selection_a=1-12 selection_b=13-25 scaling=1.0 benchmark_Eint=-3.959 benchmark_unit=kcal/mol group=Br
  C   -0.126000000  -0.098000000   6.160000000
  C    0.900000000  -0.780000000   5.517000000
  C    1.055000000  -0.681000000   4.140000000
  C    0.175000000   0.107000000   3.411000000
  C   -0.855000000   0.794000000   4.041000000
  C   -1.001000000   0.687000000   5.419000000
 Br    0.383000000   0.249000000   1.513000000
  H    1.851000000  -1.209000000   3.637000000
  H   -1.532000000   1.403000000   3.462000000
  H    1.585000000  -1.393000000   6.086000000
  H   -1.801000000   1.221000000   5.911000000
  H   -0.243000000  -0.178000000   7.231000000
  N    0.717000000   0.476000000  -1.433000000
  C    2.133000000   0.686000000  -1.668000000
  C    0.247000000  -0.768000000  -2.012000000
  C   -0.080000000   1.611000000  -1.859000000
  H   -0.799000000  -0.923000000  -1.752000000
  H    0.823000000  -1.601000000  -1.611000000
  H    0.336000000  -0.785000000  -3.111000000
  H   -1.125000000   1.444000000  -1.599000000
  H   -0.019000000   1.789000000  -2.945000000
  H    0.257000000   2.510000000  -1.346000000
  H    2.460000000   1.591000000  -1.157000000
  H    2.374000000   0.788000000  -2.739000000
  H    2.700000000  -0.154000000  -1.270000000
