15
charge=0 charge_a=0 charge_b=0 selection_a=1-10 selection_b=11-15 scaling=1.0 benchmark_Eint=-2.206 benchmark_unit=kcal/mol group=Br
  N   -1.487000000   0.489000000   0.000000000
  N   -4.181000000  -0.242000000   0.000000000
  C   -1.865000000  -0.786000000   0.000000000
  C   -3.207000000  -1.149000000   0.000000000
  C   -2.458000000   1.398000000   0.000000000
  C   -3.800000000   1.033000000   0.000000000
  H   -1.081000000  -1.532000000   0.000000000
  H   -3.501000000  -2.191000000   0.001000000
  H   -2.164000000   2.439000000  -0.001000000
  H   -4.580000000   1.784000000   0.000000000
 Br    1.670000000   0.191000000   0.000000000
  C    3.567000000  -0.295000000   0.000000000
  H    4.145000000   0.621000000   0.000000000
  H    3.763000000  -0.875000000   0.893000000
  H    3.763000000  -0.876000000  -0.892000000
