12
charge=0 charge_a=0 charge_b=0 selection_a=1-10 selection_b=11-12 scaling=1.25 benchmark_Eint=-5.291 benchmark_unit=kcal/mol group=Br
  N   -1.429000000   0.001000000   0.000000000
  N   -4.199000000   0.003000000   0.000000000
  C   -2.113000000  -1.138000000   0.000000000
  C   -3.503000000  -1.131000000   0.000000000
  C   -2.111000000   1.141000000   0.000000000
  C   -3.502000000   1.135000000   0.000000000
  H   -1.545000000  -2.058000000   0.000000000
  H   -4.061000000  -2.058000000   0.000000000
  H   -1.542000000   2.060000000   0.000000000
  H   -4.058000000   2.063000000   0.000000000
 Br    1.738500000  -0.001500000   0.000000000
 Br    4.115500000  -0.002500000   0.000000000
