15
charge=0 charge_a=0 charge_b=0 selection_a=1-13 selection_b=14-15 scaling=0.8 benchmark_Eint=-4.261 benchmark_unit=kcal/mol group=Br
  N    0.000000000   0.000000000  -1.438000000
  C   -0.542000000  -1.290000000  -1.856000000
  C   -0.846000000   1.115000000  -1.855000000
  C    1.389000000   0.175000000  -1.855000000
  H   -1.548000000  -1.405000000  -1.461000000
  H    0.080000000  -2.089000000  -1.460000000
  H   -0.575000000  -1.370000000  -2.949000000
  H   -1.849000000   0.976000000  -1.460000000
  H   -0.898000000   1.184000000  -2.948000000
  H   -0.442000000   2.043000000  -1.460000000
  H    1.770000000   1.113000000  -1.460000000
  H    1.475000000   0.186000000  -2.948000000
  H    1.991000000  -0.638000000  -1.459000000
 Br    0.000000000   0.000000000   0.500400000
 Br   -0.001000000  -0.001000000   2.933400000
