25
charge=0 charge_a=0 charge_b=0 selection_a=1-12 selection_b=13-25 scaling=2.0 benchmark_Eint=-0.117 benchmark_unit=kcal/mol group=Br
  C   -0.126000000  -0.098000000   6.160000000
  C    0.900000000  -0.780000000   5.517000000
  C    1.055000000  -0.681000000   4.140000000
  C    0.175000000   0.107000000   3.411000000
  C   -0.855000000   0.794000000   4.041000000
  C   -1.001000000   0.687000000   5.419000000
 Br    0.383000000   0.249000000   1.513000000
  H    1.851000000  -1.209000000   3.637000000
  H   -1.532000000   1.403000000   3.462000000
  H    1.585000000  -1.393000000   6.086000000
  H   -1.801000000   1.221000000   5.911000000
  H   -0.243000000  -0.178000000   7.231000000
  N    1.051000000   0.703000000  -4.379000000
  C    2.467000000   0.913000000  -4.614000000
  C    0.581000000  -0.541000000  -4.958000000
  C    0.254000000   1.838000000  -4.805000000
  H   -0.465000000  -0.696000000  -4.698000000
  H    1.157000000  -1.374000000  -4.557000000
  H    0.670000000  -0.558000000  -6.057000000
  H   -0.791000000   1.671000000  -4.545000000
  H    0.315000000   2.016000000  -5.891000000
  H    0.591000000   2.737000000  -4.292000000
  H    2.794000000   1.818000000  -4.103000000
  H    2.708000000   1.015000000  -5.685000000
  H    3.034000000   0.073000000  -4.216000000
