18
charge=0 charge_a=0 charge_b=0 selection_a=1-13 selection_b=14-18 scaling=1.0 benchmark_Eint=-3.272 benchmark_unit=kcal/mol group=Br
  N   -0.171000000   0.355000000  -2.171000000
  C   -0.670000000  -1.003000000  -2.066000000
  C   -0.847000000   1.106000000  -3.211000000
  C    1.271000000   0.396000000  -2.317000000
  H   -1.744000000  -0.986000000  -1.882000000
  H   -0.191000000  -1.507000000  -1.227000000
  H   -0.485000000  -1.595000000  -2.977000000
  H   -1.919000000   1.112000000  -3.022000000
  H   -0.676000000   0.687000000  -4.217000000
  H   -0.496000000   2.137000000  -3.207000000
  H    1.611000000   1.431000000  -2.317000000
  H    1.617000000  -0.081000000  -3.249000000
  H    1.740000000  -0.115000000  -1.477000000
 Br   -0.817000000   1.709000000   0.420000000
  C   -1.242000000   2.596000000   2.120000000
  H   -1.891000000   1.941000000   2.687000000
  H   -0.313000000   2.772000000   2.648000000
  H   -1.740000000   3.532000000   1.894000000
