15
charge=0 charge_a=0 charge_b=0 selection_a=1-10 selection_b=11-15 scaling=1.5 benchmark_Eint=-0.336 benchmark_unit=kcal/mol group=Br
  N   -1.487000000   0.489000000   0.000000000
  N   -4.181000000  -0.242000000   0.000000000
  C   -1.865000000  -0.786000000   0.000000000
  C   -3.207000000  -1.149000000   0.000000000
  C   -2.458000000   1.398000000   0.000000000
  C   -3.800000000   1.033000000   0.000000000
  H   -1.081000000  -1.532000000   0.000000000
  H   -3.501000000  -2.191000000   0.001000000
  H   -2.164000000   2.439000000  -0.001000000
  H   -4.580000000   1.784000000   0.000000000
 Br    3.248500000   0.042000000   0.000000000
  C    5.145500000  -0.444000000   0.000000000
  H    5.723500000   0.472000000   0.000000000
  H    5.341500000  -1.024000000   0.893000000
  H    5.341500000  -1.025000000  -0.892000000
