18
charge=0 charge_a=0 charge_b=0 selection_a=1-13 selection_b=14-18 scaling=2.0 benchmark_Eint=-0.034 benchmark_unit=kcal/mol group=Br
  N   -0.171000000   0.355000000  -2.171000000
  C   -0.670000000  -1.003000000  -2.066000000
  C   -0.847000000   1.106000000  -3.211000000
  C    1.271000000   0.396000000  -2.317000000
  H   -1.744000000  -0.986000000  -1.882000000
  H   -0.191000000  -1.507000000  -1.227000000
  H   -0.485000000  -1.595000000  -2.977000000
  H   -1.919000000   1.112000000  -3.022000000
  H   -0.676000000   0.687000000  -4.217000000
  H   -0.496000000   2.137000000  -3.207000000
  H    1.611000000   1.431000000  -2.317000000
  H    1.617000000  -0.081000000  -3.249000000
  H    1.740000000  -0.115000000  -1.477000000
 Br   -1.463000000   3.063000000   3.011000000
  C   -1.888000000   3.950000000   4.711000000
  H   -2.537000000   3.295000000   5.278000000
  H   -0.959000000   4.126000000   5.239000000
  H   -2.386000000   4.886000000   4.485000000
