22
charge=0 charge_a=0 charge_b=0 selection_a=1-10 selection_b=11-22 scaling=1.0 benchmark_Eint=-2.607 benchmark_unit=kcal/mol group=Br
  N   -1.387000000   0.000000000  -0.001000000
  N   -4.177000000   0.002000000   0.000000000
  C   -2.086000000  -1.122000000  -0.144000000
  C   -3.476000000  -1.120000000  -0.144000000
  C   -2.084000000   1.123000000   0.143000000
  C   -3.475000000   1.124000000   0.143000000
  H   -1.527000000  -2.041000000  -0.262000000
  H   -4.033000000  -2.041000000  -0.262000000
  H   -1.524000000   2.042000000   0.261000000
  H   -4.031000000   2.045000000   0.261000000
 Br    1.709000000  -0.001000000   0.000000000
  C    3.619000000  -0.002000000   0.000000000
  C    4.303000000  -0.396000000   1.143000000
  C    4.303000000   0.392000000  -1.142000000
  C    5.692000000  -0.394000000   1.136000000
  C    5.693000000   0.389000000  -1.135000000
  C    6.390000000  -0.003000000   0.001000000
  H    3.756000000  -0.699000000   2.023000000
  H    3.758000000   0.695000000  -2.022000000
  H    6.227000000  -0.700000000   2.024000000
  H    6.228000000   0.695000000  -2.023000000
  H    7.471000000  -0.003000000   0.001000000
