15
charge=0 charge_a=0 charge_b=0 selection_a=1-10 selection_b=11-15 scaling=0.95 benchmark_Eint=-4.214 benchmark_unit=kcal/mol group=Br
  N   -1.397000000  -0.002000000  -0.002000000
  N   -4.184000000   0.004000000   0.001000000
  C   -2.096000000  -1.134000000   0.011000000
  C   -3.486000000  -1.129000000   0.013000000
  C   -2.090000000   1.133000000  -0.013000000
  C   -3.481000000   1.134000000  -0.011000000
  H   -1.538000000  -2.061000000   0.021000000
  H   -4.044000000  -2.056000000   0.023000000
  H   -1.528000000   2.058000000  -0.023000000
  H   -4.035000000   2.064000000  -0.021000000
  C    3.323050000  -0.000950000  -0.000050000
 Br    1.376050000  -0.002950000  -0.001050000
  F    3.793050000   1.171050000   0.433950000
  F    3.796050000  -0.209950000  -1.229050000
  F    3.795050000  -0.959950000   0.797950000
