22
charge=0 charge_a=0 charge_b=0 selection_a=1-10 selection_b=11-22 scaling=0.95 benchmark_Eint=-2.508 benchmark_unit=kcal/mol group=Br
  N   -1.387000000   0.000000000  -0.001000000
  N   -4.177000000   0.002000000   0.000000000
  C   -2.086000000  -1.122000000  -0.144000000
  C   -3.476000000  -1.120000000  -0.144000000
  C   -2.084000000   1.123000000   0.143000000
  C   -3.475000000   1.124000000   0.143000000
  H   -1.527000000  -2.041000000  -0.262000000
  H   -4.033000000  -2.041000000  -0.262000000
  H   -1.524000000   2.042000000   0.261000000
  H   -4.031000000   2.045000000   0.261000000
 Br    1.554200000  -0.000950000  -0.000050000
  C    3.464200000  -0.001950000  -0.000050000
  C    4.148200000  -0.395950000   1.142950000
  C    4.148200000   0.392050000  -1.142050000
  C    5.537200000  -0.393950000   1.135950000
  C    5.538200000   0.389050000  -1.135050000
  C    6.235200000  -0.002950000   0.000950000
  H    3.601200000  -0.698950000   2.022950000
  H    3.603200000   0.695050000  -2.022050000
  H    6.072200000  -0.699950000   2.023950000
  H    6.073200000   0.695050000  -2.023050000
  H    7.316200000  -0.002950000   0.000950000
