25
charge=0 charge_a=0 charge_b=0 selection_a=1-12 selection_b=13-25 scaling=1.1 benchmark_Eint=-3.347 benchmark_unit=kcal/mol group=Br
  C   -0.126000000  -0.098000000   6.160000000
  C    0.900000000  -0.780000000   5.517000000
  C    1.055000000  -0.681000000   4.140000000
  C    0.175000000   0.107000000   3.411000000
  C   -0.855000000   0.794000000   4.041000000
  C   -1.001000000   0.687000000   5.419000000
 Br    0.383000000   0.249000000   1.513000000
  H    1.851000000  -1.209000000   3.637000000
  H   -1.532000000   1.403000000   3.462000000
  H    1.585000000  -1.393000000   6.086000000
  H   -1.801000000   1.221000000   5.911000000
  H   -0.243000000  -0.178000000   7.231000000
  N    0.750400000   0.498700000  -1.727600000
  C    2.166400000   0.708700000  -1.962600000
  C    0.280400000  -0.745300000  -2.306600000
  C   -0.046600000   1.633700000  -2.153600000
  H   -0.765600000  -0.900300000  -2.046600000
  H    0.856400000  -1.578300000  -1.905600000
  H    0.369400000  -0.762300000  -3.405600000
  H   -1.091600000   1.466700000  -1.893600000
  H    0.014400000   1.811700000  -3.239600000
  H    0.290400000   2.532700000  -1.640600000
  H    2.493400000   1.613700000  -1.451600000
  H    2.407400000   0.810700000  -3.033600000
  H    2.733400000  -0.131300000  -1.564600000
