25
charge=0 charge_a=0 charge_b=0 selection_a=1-12 selection_b=13-25 scaling=0.85 benchmark_Eint=-1.252 benchmark_unit=kcal/mol group=Br
  C   -0.126000000  -0.098000000   6.160000000
  C    0.900000000  -0.780000000   5.517000000
  C    1.055000000  -0.681000000   4.140000000
  C    0.175000000   0.107000000   3.411000000
  C   -0.855000000   0.794000000   4.041000000
  C   -1.001000000   0.687000000   5.419000000
 Br    0.383000000   0.249000000   1.513000000
  H    1.851000000  -1.209000000   3.637000000
  H   -1.532000000   1.403000000   3.462000000
  H    1.585000000  -1.393000000   6.086000000
  H   -1.801000000   1.221000000   5.911000000
  H   -0.243000000  -0.178000000   7.231000000
  N    0.666900000   0.441950000  -0.991100000
  C    2.082900000   0.651950000  -1.226100000
  C    0.196900000  -0.802050000  -1.570100000
  C   -0.130100000   1.576950000  -1.417100000
  H   -0.849100000  -0.957050000  -1.310100000
  H    0.772900000  -1.635050000  -1.169100000
  H    0.285900000  -0.819050000  -2.669100000
  H   -1.175100000   1.409950000  -1.157100000
  H   -0.069100000   1.754950000  -2.503100000
  H    0.206900000   2.475950000  -0.904100000
  H    2.409900000   1.556950000  -0.715100000
  H    2.323900000   0.753950000  -2.297100000
  H    2.649900000  -0.188050000  -0.828100000
