14
charge=0 charge_a=0 charge_b=0 selection_a=1-12 selection_b=13-14 scaling=0.95 benchmark_Eint=-9.830 benchmark_unit=kcal/mol group=Br
  C    4.451000000   2.343000000  -0.324000000
  C    3.664000000   3.449000000  -0.619000000
  C    2.372000000   3.523000000  -0.146000000
  N    1.854000000   2.528000000   0.618000000
  C    2.607000000   1.437000000   0.910000000
  C    3.900000000   1.330000000   0.450000000
  O    0.638000000   2.617000000   1.056000000
  H    1.692000000   4.336000000  -0.333000000
  H    2.102000000   0.698000000   1.507000000
  H    4.041000000   4.261000000  -1.221000000
  H    4.467000000   0.447000000   0.703000000
  H    5.463000000   2.271000000  -0.691000000
 Br   -0.653050000   1.132150000  -0.245500000
 Br   -1.816050000  -0.403850000  -1.635500000
