24
charge=0 charge_a=0 charge_b=0 selection_a=1-12 selection_b=13-24 scaling=1.1 benchmark_Eint=-2.460 benchmark_unit=kcal/mol group=Br
  C    3.850000000  -0.873000000   0.000000000
  C    4.416000000   0.396000000   0.000000000
  C    3.617000000   1.516000000   0.000000000
  N    2.255000000   1.416000000   0.000000000
  C    1.688000000   0.174000000   0.000000000
  C    2.465000000  -0.963000000   0.000000000
  O    1.530000000   2.466000000   0.000000000
  H    3.979000000   2.530000000   0.000000000
  H    0.612000000   0.182000000   0.000000000
  H    5.487000000   0.530000000   0.000000000
  H    1.967000000  -1.922000000   0.000000000
  H    4.467000000  -1.758000000   0.000000000
 Br   -1.830500000   2.186600000   0.000000000
  C   -3.728500000   1.984600000   0.000000000
  C   -4.533500000   3.115600000   0.000000000
  C   -5.915500000   2.965600000   0.000000000
  C   -6.486500000   1.699600000   0.000000000
  C   -5.668500000   0.575600000   0.000000000
  C   -4.285500000   0.712600000   0.000000000
  H   -4.086500000   4.097600000   0.000000000
  H   -3.647500000  -0.158400000   0.000000000
  H   -6.543500000   3.844600000   0.000000000
  H   -6.104500000  -0.413400000   0.000000000
  H   -7.560500000   1.588600000   0.000000000
