15
charge=0 charge_a=0 charge_b=0 selection_a=1-5 selection_b=6-15 scaling=0.9 benchmark_Eint=-1.275 benchmark_unit=kcal/mol group=Br
  C    1.131000000  -2.825000000  -0.489000000
 Br    0.456000000  -0.997000000  -0.668000000
  H    1.135000000  -3.080000000   0.564000000
  H    0.468000000  -3.479000000  -1.042000000
  H    2.133000000  -2.854000000  -0.899000000
  O   -0.480000000   1.712000000  -0.836300000
  C    0.030000000   2.589000000  -0.178300000
  C   -0.518000000   3.998000000  -0.177300000
  C    1.245000000   2.338000000   0.684700000
  H    1.532000000   1.293000000   0.638700000
  H    2.073000000   2.964000000   0.347700000
  H    1.036000000   2.622000000   1.717700000
  H   -0.825000000   4.277000000   0.832700000
  H    0.258000000   4.705000000  -0.477300000
  H   -1.366000000   4.073000000  -0.851300000
