15
charge=0 charge_a=0 charge_b=0 selection_a=1-5 selection_b=6-15 scaling=0.8 benchmark_Eint=2.164 benchmark_unit=kcal/mol group=Br
  C    1.355000000  -1.345000000   0.118000000
  F    1.706000000  -1.338000000   1.405000000
 Br   -0.304000000  -0.369000000  -0.146000000
  F    2.344000000  -0.792000000  -0.586000000
  F    1.224000000  -2.613000000  -0.271000000
  O   -2.280800000   0.843000000  -0.450000000
  C   -2.456800000   2.026000000  -0.258000000
  C   -3.800800000   2.671000000  -0.499000000
  C   -1.350800000   2.931000000   0.231000000
  H   -0.452800000   2.359000000   0.441000000
  H   -1.133800000   3.685000000  -0.528000000
  H   -1.668800000   3.468000000   1.126000000
  H   -4.191800000   3.067000000   0.440000000
  H   -3.698800000   3.517000000  -1.180000000
  H   -4.497800000   1.946000000  -0.908000000
