15
charge=0 charge_a=0 charge_b=0 selection_a=1-5 selection_b=6-15 scaling=1.05 benchmark_Eint=-1.651 benchmark_unit=kcal/mol group=Br
  C    1.131000000  -2.825000000  -0.489000000
 Br    0.456000000  -0.997000000  -0.668000000
  H    1.135000000  -3.080000000   0.564000000
  H    0.468000000  -3.479000000  -1.042000000
  H    2.133000000  -2.854000000  -0.899000000
  O   -0.636000000   2.163500000  -0.864350000
  C   -0.126000000   3.040500000  -0.206350000
  C   -0.674000000   4.449500000  -0.205350000
  C    1.089000000   2.789500000   0.656650000
  H    1.376000000   1.744500000   0.610650000
  H    1.917000000   3.415500000   0.319650000
  H    0.880000000   3.073500000   1.689650000
  H   -0.981000000   4.728500000   0.804650000
  H    0.102000000   5.156500000  -0.505350000
  H   -1.522000000   4.524500000  -0.879350000
