24
charge=0 charge_a=0 charge_b=0 selection_a=1-12 selection_b=13-24 scaling=2.0 benchmark_Eint=-0.040 benchmark_unit=kcal/mol group=Br
  C    3.850000000  -0.873000000   0.000000000
  C    4.416000000   0.396000000   0.000000000
  C    3.617000000   1.516000000   0.000000000
  N    2.255000000   1.416000000   0.000000000
  C    1.688000000   0.174000000   0.000000000
  C    2.465000000  -0.963000000   0.000000000
  O    1.530000000   2.466000000   0.000000000
  H    3.979000000   2.530000000   0.000000000
  H    0.612000000   0.182000000   0.000000000
  H    5.487000000   0.530000000   0.000000000
  H    1.967000000  -1.922000000   0.000000000
  H    4.467000000  -1.758000000   0.000000000
 Br   -4.580000000   1.958000000   0.000000000
  C   -6.478000000   1.756000000   0.000000000
  C   -7.283000000   2.887000000   0.000000000
  C   -8.665000000   2.737000000   0.000000000
  C   -9.236000000   1.471000000   0.000000000
  C   -8.418000000   0.347000000   0.000000000
  C   -7.035000000   0.484000000   0.000000000
  H   -6.836000000   3.869000000   0.000000000
  H   -6.397000000  -0.387000000   0.000000000
  H   -9.293000000   3.616000000   0.000000000
  H   -8.854000000  -0.642000000   0.000000000
  H  -10.310000000   1.360000000   0.000000000
