15
charge=0 charge_a=0 charge_b=0 selection_a=1-5 selection_b=6-15 scaling=0.85 benchmark_Eint=-0.165 benchmark_unit=kcal/mol group=Br
  C    1.131000000  -2.825000000  -0.489000000
 Br    0.456000000  -0.997000000  -0.668000000
  H    1.135000000  -3.080000000   0.564000000
  H    0.468000000  -3.479000000  -1.042000000
  H    2.133000000  -2.854000000  -0.899000000
  O   -0.428000000   1.561500000  -0.826950000
  C    0.082000000   2.438500000  -0.168950000
  C   -0.466000000   3.847500000  -0.167950000
  C    1.297000000   2.187500000   0.694050000
  H    1.584000000   1.142500000   0.648050000
  H    2.125000000   2.813500000   0.357050000
  H    1.088000000   2.471500000   1.727050000
  H   -0.773000000   4.126500000   0.842050000
  H    0.310000000   4.554500000  -0.467950000
  H   -1.314000000   3.922500000  -0.841950000
