11
charge=0 charge_a=0 charge_b=0 selection_a=1-9 selection_b=10-11 scaling=0.95 benchmark_Eint=-3.407 benchmark_unit=kcal/mol group=Br
  C   -2.999000000  -2.095000000   0.298000000
  O   -2.674000000  -0.771000000   0.252000000
  C   -3.715000000  -0.120000000  -0.343000000
  C   -4.689000000  -1.002000000  -0.666000000
  C   -4.221000000  -2.291000000  -0.248000000
  H   -5.625000000  -0.771000000  -1.142000000
  H   -4.733000000  -3.232000000  -0.344000000
  H   -3.603000000   0.942000000  -0.456000000
  H   -2.267000000  -2.744000000   0.740000000
 Br   -0.133700000   0.069750000   0.007850000
 Br    2.061300000   0.788750000  -0.229150000
