15
charge=0 charge_a=0 charge_b=0 selection_a=1-5 selection_b=6-15 scaling=0.8 benchmark_Eint=2.141 benchmark_unit=kcal/mol group=Br
  C    1.131000000  -2.825000000  -0.489000000
 Br    0.456000000  -0.997000000  -0.668000000
  H    1.135000000  -3.080000000   0.564000000
  H    0.468000000  -3.479000000  -1.042000000
  H    2.133000000  -2.854000000  -0.899000000
  O   -0.376000000   1.411000000  -0.817600000
  C    0.134000000   2.288000000  -0.159600000
  C   -0.414000000   3.697000000  -0.158600000
  C    1.349000000   2.037000000   0.703400000
  H    1.636000000   0.992000000   0.657400000
  H    2.177000000   2.663000000   0.366400000
  H    1.140000000   2.321000000   1.736400000
  H   -0.721000000   3.976000000   0.851400000
  H    0.362000000   4.404000000  -0.458600000
  H   -1.262000000   3.772000000  -0.832600000
