14
charge=0 charge_a=0 charge_b=0 selection_a=1-9 selection_b=10-14 scaling=1.05 benchmark_Eint=-2.402 benchmark_unit=kcal/mol group=Br
  C   -2.941000000  -1.117000000  -0.205000000
  O   -2.484000000  -0.060000000  -0.936000000
  C   -2.936000000   1.072000000  -0.324000000
  C   -3.664000000   0.753000000   0.771000000
  C   -3.667000000  -0.678000000   0.849000000
  H   -4.141000000   1.443000000   1.444000000
  H   -4.146000000  -1.289000000   1.593000000
  H   -2.655000000   2.000000000  -0.785000000
  H   -2.663000000  -2.091000000  -0.562000000
 Br    0.723750000  -0.030600000  -0.281850000
  C    2.595750000  -0.002600000   0.240150000
  F    2.965750000   1.230400000   0.577150000
  F    3.364750000  -0.414600000  -0.765850000
  F    2.798750000  -0.804600000   1.283150000
