24
charge=0 charge_a=0 charge_b=0 selection_a=1-12 selection_b=13-24 scaling=0.8 benchmark_Eint=1.493 benchmark_unit=kcal/mol group=Br
  C    3.850000000  -0.873000000   0.000000000
  C    4.416000000   0.396000000   0.000000000
  C    3.617000000   1.516000000   0.000000000
  N    2.255000000   1.416000000   0.000000000
  C    1.688000000   0.174000000   0.000000000
  C    2.465000000  -0.963000000   0.000000000
  O    1.530000000   2.466000000   0.000000000
  H    3.979000000   2.530000000   0.000000000
  H    0.612000000   0.182000000   0.000000000
  H    5.487000000   0.530000000   0.000000000
  H    1.967000000  -1.922000000   0.000000000
  H    4.467000000  -1.758000000   0.000000000
 Br   -0.914000000   2.262800000   0.000000000
  C   -2.812000000   2.060800000   0.000000000
  C   -3.617000000   3.191800000   0.000000000
  C   -4.999000000   3.041800000   0.000000000
  C   -5.570000000   1.775800000   0.000000000
  C   -4.752000000   0.651800000   0.000000000
  C   -3.369000000   0.788800000   0.000000000
  H   -3.170000000   4.173800000   0.000000000
  H   -2.731000000  -0.082200000   0.000000000
  H   -5.627000000   3.920800000   0.000000000
  H   -5.188000000  -0.337200000   0.000000000
  H   -6.644000000   1.664800000   0.000000000
