12
charge=0 charge_a=0 charge_b=0 selection_a=1-5 selection_b=6-12 scaling=0.8 benchmark_Eint=1.391 benchmark_unit=kcal/mol group=Br
  C   -2.925000000  -0.077000000   0.021000000
  F   -3.475000000  -1.068000000  -0.680000000
 Br   -0.998000000  -0.291000000   0.110000000
  F   -3.243000000   1.077000000  -0.565000000
  F   -3.455000000  -0.085000000   1.244000000
  O    1.417200000  -0.783000000   0.263600000
  N    2.159200000   0.177000000   0.128600000
  O    1.802200000   1.320000000  -0.075400000
  C    3.627200000  -0.095000000   0.228600000
  H    4.158200000   0.833000000   0.064600000
  H    3.866200000  -0.843000000  -0.521400000
  H    3.809200000  -0.501000000   1.218600000
