17
charge=0 charge_a=0 charge_b=0 selection_a=1-12 selection_b=13-17 scaling=1.0 benchmark_Eint=-2.821 benchmark_unit=kcal/mol group=Br
  C    4.284000000  -0.645000000  -0.609000000
  C    3.847000000   0.643000000  -0.892000000
  C    2.992000000   1.295000000  -0.032000000
  N    2.555000000   0.702000000   1.116000000
  C    2.973000000  -0.565000000   1.401000000
  C    3.827000000  -1.241000000   0.560000000
  O    1.754000000   1.313000000   1.898000000
  H    2.604000000   2.287000000  -0.185000000
  H    2.570000000  -0.962000000   2.317000000
  H    4.164000000   1.156000000  -1.787000000
  H    4.128000000  -2.242000000   0.831000000
  H    4.953000000  -1.166000000  -1.275000000
 Br   -0.651000000   0.020000000   0.401000000
  C   -1.841000000  -0.986000000  -0.781000000
  H   -2.459000000  -0.276000000  -1.316000000
  H   -1.228000000  -1.558000000  -1.467000000
  H   -2.448000000  -1.640000000  -0.167000000
