14
charge=0 charge_a=0 charge_b=0 selection_a=1-9 selection_b=10-14 scaling=0.9 benchmark_Eint=-1.240 benchmark_unit=kcal/mol group=Br
  C   -2.065000000  -0.897000000  -0.012000000
  O   -1.451000000   0.318000000   0.004000000
  C   -2.431000000   1.262000000   0.021000000
  C   -3.651000000   0.672000000   0.016000000
  C   -3.411000000  -0.741000000  -0.005000000
  H   -4.602000000   1.172000000   0.026000000
  H   -4.144000000  -1.527000000  -0.014000000
  H   -2.102000000   2.284000000   0.034000000
  H   -1.413000000  -1.749000000  -0.026000000
 Br    1.356100000  -0.594600000  -0.017600000
  C    3.059100000  -1.558600000  -0.036600000
  H    3.853100000  -0.822600000  -0.027600000
  H    3.096100000  -2.182600000   0.847400000
  H    3.091100000  -2.156600000  -0.937600000
