15
charge=0 charge_a=0 charge_b=0 selection_a=1-5 selection_b=6-15 scaling=1.1 benchmark_Eint=-1.451 benchmark_unit=kcal/mol group=Br
  C    1.131000000  -2.825000000  -0.489000000
 Br    0.456000000  -0.997000000  -0.668000000
  H    1.135000000  -3.080000000   0.564000000
  H    0.468000000  -3.479000000  -1.042000000
  H    2.133000000  -2.854000000  -0.899000000
  O   -0.688000000   2.314000000  -0.873700000
  C   -0.178000000   3.191000000  -0.215700000
  C   -0.726000000   4.600000000  -0.214700000
  C    1.037000000   2.940000000   0.647300000
  H    1.324000000   1.895000000   0.601300000
  H    1.865000000   3.566000000   0.310300000
  H    0.828000000   3.224000000   1.680300000
  H   -1.033000000   4.879000000   0.795300000
  H    0.050000000   5.307000000  -0.514700000
  H   -1.574000000   4.675000000  -0.888700000
