22
charge=0 charge_a=0 charge_b=0 selection_a=1-10 selection_b=11-22 scaling=0.8 benchmark_Eint=1.888 benchmark_unit=kcal/mol group=Br
  H    0.732000000   1.552000000   0.994000000
  H    0.216000000   3.252000000   0.858000000
  H   -0.687000000   2.155000000   1.884000000
  C   -0.123000000   2.219000000   0.951000000
  H   -2.851000000   2.737000000   0.477000000
  H   -1.927000000   3.762000000  -0.602000000
  H   -2.814000000   2.368000000  -1.265000000
  C   -2.234000000   2.730000000  -0.422000000
  C   -1.016000000   1.859000000  -0.213000000
  O   -0.774000000   0.925000000  -0.942000000
 Br    1.294800000  -0.471000000  -0.682000000
  C    2.904800000  -1.457000000  -0.400000000
  C    2.898800000  -2.542000000   0.465000000
  C    4.062800000  -1.078000000  -1.065000000
  C    4.074800000  -3.256000000   0.665000000
  C    5.231800000  -1.800000000  -0.856000000
  C    5.241800000  -2.888000000   0.007000000
  H    1.989800000  -2.826000000   0.973000000
  H    4.049800000  -0.233000000  -1.736000000
  H    4.073800000  -4.102000000   1.338000000
  H    6.134800000  -1.508000000  -1.373000000
  H    6.153800000  -3.446000000   0.166000000
