12
charge=0 charge_a=0 charge_b=0 selection_a=1-5 selection_b=6-12 scaling=1.25 benchmark_Eint=-1.701 benchmark_unit=kcal/mol group=Br
  C   -2.925000000  -0.077000000   0.021000000
  F   -3.475000000  -1.068000000  -0.680000000
 Br   -0.998000000  -0.291000000   0.110000000
  F   -3.243000000   1.077000000  -0.565000000
  F   -3.455000000  -0.085000000   1.244000000
  O    2.775750000  -1.059750000   0.350000000
  N    3.517750000  -0.099750000   0.215000000
  O    3.160750000   1.043250000   0.011000000
  C    4.985750000  -0.371750000   0.315000000
  H    5.516750000   0.556250000   0.151000000
  H    5.224750000  -1.119750000  -0.435000000
  H    5.167750000  -0.777750000   1.305000000
