15
charge=0 charge_a=0 charge_b=0 selection_a=1-5 selection_b=6-15 scaling=1.1 benchmark_Eint=-3.546 benchmark_unit=kcal/mol group=Br
  C    1.355000000  -1.345000000   0.118000000
  F    1.706000000  -1.338000000   1.405000000
 Br   -0.304000000  -0.369000000  -0.146000000
  F    2.344000000  -0.792000000  -0.586000000
  F    1.224000000  -2.613000000  -0.271000000
  O   -3.022100000   1.297500000  -0.564000000
  C   -3.198100000   2.480500000  -0.372000000
  C   -4.542100000   3.125500000  -0.613000000
  C   -2.092100000   3.385500000   0.117000000
  H   -1.194100000   2.813500000   0.327000000
  H   -1.875100000   4.139500000  -0.642000000
  H   -2.410100000   3.922500000   1.012000000
  H   -4.933100000   3.521500000   0.326000000
  H   -4.440100000   3.971500000  -1.294000000
  H   -5.239100000   2.400500000  -1.022000000
