15
charge=0 charge_a=0 charge_b=0 selection_a=1-5 selection_b=6-15 scaling=1.5 benchmark_Eint=-1.166 benchmark_unit=kcal/mol group=Br
  C    1.355000000  -1.345000000   0.118000000
  F    1.706000000  -1.338000000   1.405000000
 Br   -0.304000000  -0.369000000  -0.146000000
  F    2.344000000  -0.792000000  -0.586000000
  F    1.224000000  -2.613000000  -0.271000000
  O   -4.010500000   1.903500000  -0.716000000
  C   -4.186500000   3.086500000  -0.524000000
  C   -5.530500000   3.731500000  -0.765000000
  C   -3.080500000   3.991500000  -0.035000000
  H   -2.182500000   3.419500000   0.175000000
  H   -2.863500000   4.745500000  -0.794000000
  H   -3.398500000   4.528500000   0.860000000
  H   -5.921500000   4.127500000   0.174000000
  H   -5.428500000   4.577500000  -1.446000000
  H   -6.227500000   3.006500000  -1.174000000
