21
charge=0 charge_a=0 charge_b=0 selection_a=1-9 selection_b=10-21 scaling=0.9 benchmark_Eint=-1.537 benchmark_unit=kcal/mol group=Br
  O   -1.444000000  -0.558000000  -0.334000000
  C   -3.073000000   0.741000000   0.454000000
  C   -3.662000000  -0.377000000  -0.220000000
  C   -1.732000000   0.581000000   0.355000000
  C   -2.631000000  -1.129000000  -0.676000000
  H   -3.584000000   1.551000000   0.944000000
  H   -4.709000000  -0.587000000  -0.344000000
  H   -0.886000000   1.148000000   0.695000000
  H   -2.571000000  -2.046000000  -1.231000000
 Br    1.454900000  -0.524700000  -0.319600000
  C    3.320900000  -0.175700000  -0.113600000
  C    3.987900000  -0.676700000   0.995400000
  C    3.982900000   0.574300000  -1.074600000
  C    5.345900000  -0.417700000   1.139400000
  C    5.340900000   0.824300000  -0.917600000
  C    6.024900000   0.330300000   0.186400000
  H    3.455900000  -1.257700000   1.732400000
  H    3.447900000   0.955300000  -1.930600000
  H    5.870900000  -0.805700000   2.001400000
  H    5.862900000   1.407300000  -1.663600000
  H    7.080900000   0.528300000   0.303400000
