21
charge=0 charge_a=0 charge_b=0 selection_a=1-9 selection_b=10-21 scaling=1.1 benchmark_Eint=-1.509 benchmark_unit=kcal/mol group=Br
  O   -1.444000000  -0.558000000  -0.334000000
  C   -3.073000000   0.741000000   0.454000000
  C   -3.662000000  -0.377000000  -0.220000000
  C   -1.732000000   0.581000000   0.355000000
  C   -2.631000000  -1.129000000  -0.676000000
  H   -3.584000000   1.551000000   0.944000000
  H   -4.709000000  -0.587000000  -0.344000000
  H   -0.886000000   1.148000000   0.695000000
  H   -2.571000000  -2.046000000  -1.231000000
 Br    2.099100000  -0.517300000  -0.316400000
  C    3.965100000  -0.168300000  -0.110400000
  C    4.632100000  -0.669300000   0.998600000
  C    4.627100000   0.581700000  -1.071400000
  C    5.990100000  -0.410300000   1.142600000
  C    5.985100000   0.831700000  -0.914400000
  C    6.669100000   0.337700000   0.189600000
  H    4.100100000  -1.250300000   1.735600000
  H    4.092100000   0.962700000  -1.927400000
  H    6.515100000  -0.798300000   2.004600000
  H    6.507100000   1.414700000  -1.660400000
  H    7.725100000   0.535700000   0.306600000
