14
charge=0 charge_a=0 charge_b=0 selection_a=1-9 selection_b=10-14 scaling=1.5 benchmark_Eint=-0.238 benchmark_unit=kcal/mol group=Br
  C   -2.065000000  -0.897000000  -0.012000000
  O   -1.451000000   0.318000000   0.004000000
  C   -2.431000000   1.262000000   0.021000000
  C   -3.651000000   0.672000000   0.016000000
  C   -3.411000000  -0.741000000  -0.005000000
  H   -4.602000000   1.172000000   0.026000000
  H   -4.144000000  -1.527000000  -0.014000000
  H   -2.102000000   2.284000000   0.034000000
  H   -1.413000000  -1.749000000  -0.026000000
 Br    3.227500000  -1.203000000  -0.032000000
  C    4.930500000  -2.167000000  -0.051000000
  H    5.724500000  -1.431000000  -0.042000000
  H    4.967500000  -2.791000000   0.833000000
  H    4.962500000  -2.765000000  -0.952000000
