24
charge=0 charge_a=0 charge_b=0 selection_a=1-12 selection_b=13-24 scaling=0.95 benchmark_Eint=-2.943 benchmark_unit=kcal/mol group=Br
  C    3.850000000  -0.873000000   0.000000000
  C    4.416000000   0.396000000   0.000000000
  C    3.617000000   1.516000000   0.000000000
  N    2.255000000   1.416000000   0.000000000
  C    1.688000000   0.174000000   0.000000000
  C    2.465000000  -0.963000000   0.000000000
  O    1.530000000   2.466000000   0.000000000
  H    3.979000000   2.530000000   0.000000000
  H    0.612000000   0.182000000   0.000000000
  H    5.487000000   0.530000000   0.000000000
  H    1.967000000  -1.922000000   0.000000000
  H    4.467000000  -1.758000000   0.000000000
 Br   -1.372250000   2.224700000   0.000000000
  C   -3.270250000   2.022700000   0.000000000
  C   -4.075250000   3.153700000   0.000000000
  C   -5.457250000   3.003700000   0.000000000
  C   -6.028250000   1.737700000   0.000000000
  C   -5.210250000   0.613700000   0.000000000
  C   -3.827250000   0.750700000   0.000000000
  H   -3.628250000   4.135700000   0.000000000
  H   -3.189250000  -0.120300000   0.000000000
  H   -6.085250000   3.882700000   0.000000000
  H   -5.646250000  -0.375300000   0.000000000
  H   -7.102250000   1.626700000   0.000000000
