22
charge=0 charge_a=0 charge_b=0 selection_a=1-10 selection_b=11-22 scaling=1.0 benchmark_Eint=-2.324 benchmark_unit=kcal/mol group=Br
  H    0.732000000   1.552000000   0.994000000
  H    0.216000000   3.252000000   0.858000000
  H   -0.687000000   2.155000000   1.884000000
  C   -0.123000000   2.219000000   0.951000000
  H   -2.851000000   2.737000000   0.477000000
  H   -1.927000000   3.762000000  -0.602000000
  H   -2.814000000   2.368000000  -1.265000000
  C   -2.234000000   2.730000000  -0.422000000
  C   -1.016000000   1.859000000  -0.213000000
  O   -0.774000000   0.925000000  -0.942000000
 Br    1.812000000  -0.820000000  -0.617000000
  C    3.422000000  -1.806000000  -0.335000000
  C    3.416000000  -2.891000000   0.530000000
  C    4.580000000  -1.427000000  -1.000000000
  C    4.592000000  -3.605000000   0.730000000
  C    5.749000000  -2.149000000  -0.791000000
  C    5.759000000  -3.237000000   0.072000000
  H    2.507000000  -3.175000000   1.038000000
  H    4.567000000  -0.582000000  -1.671000000
  H    4.591000000  -4.451000000   1.403000000
  H    6.652000000  -1.857000000  -1.308000000
  H    6.671000000  -3.795000000   0.231000000
