22
charge=0 charge_a=0 charge_b=0 selection_a=1-10 selection_b=11-22 scaling=0.9 benchmark_Eint=-1.816 benchmark_unit=kcal/mol group=Br
  H    0.732000000   1.552000000   0.994000000
  H    0.216000000   3.252000000   0.858000000
  H   -0.687000000   2.155000000   1.884000000
  C   -0.123000000   2.219000000   0.951000000
  H   -2.851000000   2.737000000   0.477000000
  H   -1.927000000   3.762000000  -0.602000000
  H   -2.814000000   2.368000000  -1.265000000
  C   -2.234000000   2.730000000  -0.422000000
  C   -1.016000000   1.859000000  -0.213000000
  O   -0.774000000   0.925000000  -0.942000000
 Br    1.553400000  -0.645500000  -0.649500000
  C    3.163400000  -1.631500000  -0.367500000
  C    3.157400000  -2.716500000   0.497500000
  C    4.321400000  -1.252500000  -1.032500000
  C    4.333400000  -3.430500000   0.697500000
  C    5.490400000  -1.974500000  -0.823500000
  C    5.500400000  -3.062500000   0.039500000
  H    2.248400000  -3.000500000   1.005500000
  H    4.308400000  -0.407500000  -1.703500000
  H    4.332400000  -4.276500000   1.370500000
  H    6.393400000  -1.682500000  -1.340500000
  H    6.412400000  -3.620500000   0.198500000
