15
charge=0 charge_a=0 charge_b=0 selection_a=1-5 selection_b=6-15 scaling=0.95 benchmark_Eint=-1.707 benchmark_unit=kcal/mol group=Br
  C    1.131000000  -2.825000000  -0.489000000
 Br    0.456000000  -0.997000000  -0.668000000
  H    1.135000000  -3.080000000   0.564000000
  H    0.468000000  -3.479000000  -1.042000000
  H    2.133000000  -2.854000000  -0.899000000
  O   -0.532000000   1.862500000  -0.845650000
  C   -0.022000000   2.739500000  -0.187650000
  C   -0.570000000   4.148500000  -0.186650000
  C    1.193000000   2.488500000   0.675350000
  H    1.480000000   1.443500000   0.629350000
  H    2.021000000   3.114500000   0.338350000
  H    0.984000000   2.772500000   1.708350000
  H   -0.877000000   4.427500000   0.823350000
  H    0.206000000   4.855500000  -0.486650000
  H   -1.418000000   4.223500000  -0.860650000
