24
charge=0 charge_a=0 charge_b=0 selection_a=1-12 selection_b=13-24 scaling=1.0 benchmark_Eint=-2.971 benchmark_unit=kcal/mol group=Br
  C    3.850000000  -0.873000000   0.000000000
  C    4.416000000   0.396000000   0.000000000
  C    3.617000000   1.516000000   0.000000000
  N    2.255000000   1.416000000   0.000000000
  C    1.688000000   0.174000000   0.000000000
  C    2.465000000  -0.963000000   0.000000000
  O    1.530000000   2.466000000   0.000000000
  H    3.979000000   2.530000000   0.000000000
  H    0.612000000   0.182000000   0.000000000
  H    5.487000000   0.530000000   0.000000000
  H    1.967000000  -1.922000000   0.000000000
  H    4.467000000  -1.758000000   0.000000000
 Br   -1.525000000   2.212000000   0.000000000
  C   -3.423000000   2.010000000   0.000000000
  C   -4.228000000   3.141000000   0.000000000
  C   -5.610000000   2.991000000   0.000000000
  C   -6.181000000   1.725000000   0.000000000
  C   -5.363000000   0.601000000   0.000000000
  C   -3.980000000   0.738000000   0.000000000
  H   -3.781000000   4.123000000   0.000000000
  H   -3.342000000  -0.133000000   0.000000000
  H   -6.238000000   3.870000000   0.000000000
  H   -5.799000000  -0.388000000   0.000000000
  H   -7.255000000   1.614000000   0.000000000
