24
charge=0 charge_a=0 charge_b=0 selection_a=1-12 selection_b=13-24 scaling=1.5 benchmark_Eint=-0.545 benchmark_unit=kcal/mol group=Br
  C    3.850000000  -0.873000000   0.000000000
  C    4.416000000   0.396000000   0.000000000
  C    3.617000000   1.516000000   0.000000000
  N    2.255000000   1.416000000   0.000000000
  C    1.688000000   0.174000000   0.000000000
  C    2.465000000  -0.963000000   0.000000000
  O    1.530000000   2.466000000   0.000000000
  H    3.979000000   2.530000000   0.000000000
  H    0.612000000   0.182000000   0.000000000
  H    5.487000000   0.530000000   0.000000000
  H    1.967000000  -1.922000000   0.000000000
  H    4.467000000  -1.758000000   0.000000000
 Br   -3.052500000   2.085000000   0.000000000
  C   -4.950500000   1.883000000   0.000000000
  C   -5.755500000   3.014000000   0.000000000
  C   -7.137500000   2.864000000   0.000000000
  C   -7.708500000   1.598000000   0.000000000
  C   -6.890500000   0.474000000   0.000000000
  C   -5.507500000   0.611000000   0.000000000
  H   -5.308500000   3.996000000   0.000000000
  H   -4.869500000  -0.260000000   0.000000000
  H   -7.765500000   3.743000000   0.000000000
  H   -7.326500000  -0.515000000   0.000000000
  H   -8.782500000   1.487000000   0.000000000
