22
charge=0 charge_a=0 charge_b=0 selection_a=1-10 selection_b=11-22 scaling=1.1 benchmark_Eint=-1.929 benchmark_unit=kcal/mol group=Br
  H    0.732000000   1.552000000   0.994000000
  H    0.216000000   3.252000000   0.858000000
  H   -0.687000000   2.155000000   1.884000000
  C   -0.123000000   2.219000000   0.951000000
  H   -2.851000000   2.737000000   0.477000000
  H   -1.927000000   3.762000000  -0.602000000
  H   -2.814000000   2.368000000  -1.265000000
  C   -2.234000000   2.730000000  -0.422000000
  C   -1.016000000   1.859000000  -0.213000000
  O   -0.774000000   0.925000000  -0.942000000
 Br    2.070600000  -0.994500000  -0.584500000
  C    3.680600000  -1.980500000  -0.302500000
  C    3.674600000  -3.065500000   0.562500000
  C    4.838600000  -1.601500000  -0.967500000
  C    4.850600000  -3.779500000   0.762500000
  C    6.007600000  -2.323500000  -0.758500000
  C    6.017600000  -3.411500000   0.104500000
  H    2.765600000  -3.349500000   1.070500000
  H    4.825600000  -0.756500000  -1.638500000
  H    4.849600000  -4.625500000   1.435500000
  H    6.910600000  -2.031500000  -1.275500000
  H    6.929600000  -3.969500000   0.263500000
