22
charge=0 charge_a=0 charge_b=0 selection_a=1-10 selection_b=11-22 scaling=1.5 benchmark_Eint=-0.421 benchmark_unit=kcal/mol group=Br
  H    0.732000000   1.552000000   0.994000000
  H    0.216000000   3.252000000   0.858000000
  H   -0.687000000   2.155000000   1.884000000
  C   -0.123000000   2.219000000   0.951000000
  H   -2.851000000   2.737000000   0.477000000
  H   -1.927000000   3.762000000  -0.602000000
  H   -2.814000000   2.368000000  -1.265000000
  C   -2.234000000   2.730000000  -0.422000000
  C   -1.016000000   1.859000000  -0.213000000
  O   -0.774000000   0.925000000  -0.942000000
 Br    3.105000000  -1.692500000  -0.454500000
  C    4.715000000  -2.678500000  -0.172500000
  C    4.709000000  -3.763500000   0.692500000
  C    5.873000000  -2.299500000  -0.837500000
  C    5.885000000  -4.477500000   0.892500000
  C    7.042000000  -3.021500000  -0.628500000
  C    7.052000000  -4.109500000   0.234500000
  H    3.800000000  -4.047500000   1.200500000
  H    5.860000000  -1.454500000  -1.508500000
  H    5.884000000  -5.323500000   1.565500000
  H    7.945000000  -2.729500000  -1.145500000
  H    7.964000000  -4.667500000   0.393500000
