22
charge=0 charge_a=0 charge_b=0 selection_a=1-10 selection_b=11-22 scaling=2.0 benchmark_Eint=-0.030 benchmark_unit=kcal/mol group=Br
  H    0.732000000   1.552000000   0.994000000
  H    0.216000000   3.252000000   0.858000000
  H   -0.687000000   2.155000000   1.884000000
  C   -0.123000000   2.219000000   0.951000000
  H   -2.851000000   2.737000000   0.477000000
  H   -1.927000000   3.762000000  -0.602000000
  H   -2.814000000   2.368000000  -1.265000000
  C   -2.234000000   2.730000000  -0.422000000
  C   -1.016000000   1.859000000  -0.213000000
  O   -0.774000000   0.925000000  -0.942000000
 Br    4.398000000  -2.565000000  -0.292000000
  C    6.008000000  -3.551000000  -0.010000000
  C    6.002000000  -4.636000000   0.855000000
  C    7.166000000  -3.172000000  -0.675000000
  C    7.178000000  -5.350000000   1.055000000
  C    8.335000000  -3.894000000  -0.466000000
  C    8.345000000  -4.982000000   0.397000000
  H    5.093000000  -4.920000000   1.363000000
  H    7.153000000  -2.327000000  -1.346000000
  H    7.177000000  -6.196000000   1.728000000
  H    9.238000000  -3.602000000  -0.983000000
  H    9.257000000  -5.540000000   0.556000000
