15
charge=0 charge_a=0 charge_b=0 selection_a=1-5 selection_b=6-15 scaling=1.5 benchmark_Eint=-0.220 benchmark_unit=kcal/mol group=Br
  C    1.131000000  -2.825000000  -0.489000000
 Br    0.456000000  -0.997000000  -0.668000000
  H    1.135000000  -3.080000000   0.564000000
  H    0.468000000  -3.479000000  -1.042000000
  H    2.133000000  -2.854000000  -0.899000000
  O   -1.104000000   3.518000000  -0.948500000
  C   -0.594000000   4.395000000  -0.290500000
  C   -1.142000000   5.804000000  -0.289500000
  C    0.621000000   4.144000000   0.572500000
  H    0.908000000   3.099000000   0.526500000
  H    1.449000000   4.770000000   0.235500000
  H    0.412000000   4.428000000   1.605500000
  H   -1.449000000   6.083000000   0.720500000
  H   -0.366000000   6.511000000  -0.589500000
  H   -1.990000000   5.879000000  -0.963500000
