15
charge=0 charge_a=0 charge_b=0 selection_a=1-5 selection_b=6-15 scaling=1.25 benchmark_Eint=-0.818 benchmark_unit=kcal/mol group=Br
  C    1.131000000  -2.825000000  -0.489000000
 Br    0.456000000  -0.997000000  -0.668000000
  H    1.135000000  -3.080000000   0.564000000
  H    0.468000000  -3.479000000  -1.042000000
  H    2.133000000  -2.854000000  -0.899000000
  O   -0.844000000   2.765500000  -0.901750000
  C   -0.334000000   3.642500000  -0.243750000
  C   -0.882000000   5.051500000  -0.242750000
  C    0.881000000   3.391500000   0.619250000
  H    1.168000000   2.346500000   0.573250000
  H    1.709000000   4.017500000   0.282250000
  H    0.672000000   3.675500000   1.652250000
  H   -1.189000000   5.330500000   0.767250000
  H   -0.106000000   5.758500000  -0.542750000
  H   -1.730000000   5.126500000  -0.916750000
