21
charge=0 charge_a=0 charge_b=0 selection_a=1-9 selection_b=10-21 scaling=1.25 benchmark_Eint=-0.889 benchmark_unit=kcal/mol group=Br
  O   -1.444000000  -0.558000000  -0.334000000
  C   -3.073000000   0.741000000   0.454000000
  C   -3.662000000  -0.377000000  -0.220000000
  C   -1.732000000   0.581000000   0.355000000
  C   -2.631000000  -1.129000000  -0.676000000
  H   -3.584000000   1.551000000   0.944000000
  H   -4.709000000  -0.587000000  -0.344000000
  H   -0.886000000   1.148000000   0.695000000
  H   -2.571000000  -2.046000000  -1.231000000
 Br    2.582250000  -0.511750000  -0.314000000
  C    4.448250000  -0.162750000  -0.108000000
  C    5.115250000  -0.663750000   1.001000000
  C    5.110250000   0.587250000  -1.069000000
  C    6.473250000  -0.404750000   1.145000000
  C    6.468250000   0.837250000  -0.912000000
  C    7.152250000   0.343250000   0.192000000
  H    4.583250000  -1.244750000   1.738000000
  H    4.575250000   0.968250000  -1.925000000
  H    6.998250000  -0.792750000   2.007000000
  H    6.990250000   1.420250000  -1.658000000
  H    8.208250000   0.541250000   0.309000000
