9
charge=0 charge_a=0 charge_b=0 selection_a=1-7 selection_b=8-9 scaling=1.1 benchmark_Eint=-3.508 benchmark_unit=kcal/mol group=Br
  C    3.857000000   1.153000000  -0.002000000
  N    2.387000000   0.874000000   0.011000000
  O    2.054000000  -0.250000000   0.363000000
  O    1.631000000   1.761000000  -0.322000000
  H    4.005000000   2.173000000  -0.330000000
  H    4.313000000   0.435000000  -0.675000000
  H    4.222000000   0.990000000   1.007000000
 Br   -0.963300000  -0.919900000   0.421300000
 Br   -3.193300000  -1.581900000   0.519300000
