17
charge=0 charge_a=0 charge_b=0 selection_a=1-12 selection_b=13-17 scaling=1.25 benchmark_Eint=-3.383 benchmark_unit=kcal/mol group=Br
  C    5.152000000  -0.249000000   0.431000000
  C    4.262000000   0.774000000   0.731000000
  C    3.023000000   0.816000000   0.132000000
  N    2.643000000  -0.135000000  -0.767000000
  C    3.507000000  -1.145000000  -1.067000000
  C    4.752000000  -1.214000000  -0.483000000
  O    1.484000000  -0.086000000  -1.313000000
  H    2.276000000   1.570000000   0.313000000
  H    3.123000000  -1.854000000  -1.781000000
  H    4.518000000   1.550000000   1.436000000
  H    5.401000000  -2.034000000  -0.752000000
  H    6.125000000  -0.293000000   0.896000000
 Br   -0.254750000  -2.724750000   0.188250000
  C   -0.999750000  -4.245750000   1.144250000
  F   -1.384750000  -3.891750000   2.372250000
  F   -0.093750000  -5.220750000   1.259250000
  F   -2.059750000  -4.738750000   0.502250000
