12
charge=0 charge_a=0 charge_b=0 selection_a=1-10 selection_b=11-12 scaling=0.9 benchmark_Eint=-9.039 benchmark_unit=kcal/mol group=Br
  C   -3.140000000  -0.171000000  -0.005000000
  C   -2.394000000  -1.462000000  -0.002000000
  C   -3.233000000  -2.701000000  -0.004000000
  S   -0.767000000  -1.572000000   0.002000000
  H   -3.792000000  -0.134000000  -0.881000000
  H   -3.796000000  -0.132000000   0.867000000
  H   -2.483000000   0.691000000  -0.004000000
  H   -2.634000000  -3.606000000  -0.001000000
  H   -3.885000000  -2.699000000  -0.881000000
  H   -3.889000000  -2.698000000   0.870000000
 Br    0.180700000   0.694200000   0.002900000
 Br    1.161700000   2.924200000   0.003900000
