15
charge=0 charge_a=0 charge_b=0 selection_a=1-5 selection_b=6-15 scaling=0.85 benchmark_Eint=0.283 benchmark_unit=kcal/mol group=Br
  C    2.840000000   1.379000000   0.018000000
 Br    1.166000000   0.377000000   0.214000000
  H    3.654000000   0.721000000   0.297000000
  H    2.926000000   1.684000000  -1.017000000
  H    2.793000000   2.238000000   0.675000000
  S   -1.464750000  -1.142800000   0.489400000
  C   -2.590750000  -0.105800000  -0.056600000
  C   -4.046750000  -0.461800000  -0.116600000
  C   -2.257750000   1.274200000  -0.536600000
  H   -2.590750000   1.396200000  -1.570600000
  H   -2.808750000   2.013200000   0.052400000
  H   -1.195750000   1.481200000  -0.472600000
  H   -4.230750000  -1.468800000   0.241400000
  H   -4.408750000  -0.369800000  -1.144600000
  H   -4.627750000   0.248200000   0.478400000
