15
charge=0 charge_a=0 charge_b=0 selection_a=1-5 selection_b=6-15 scaling=1.1 benchmark_Eint=-1.599 benchmark_unit=kcal/mol group=Br
  C    2.840000000   1.379000000   0.018000000
 Br    1.166000000   0.377000000   0.214000000
  H    3.654000000   0.721000000   0.297000000
  H    2.926000000   1.684000000  -1.017000000
  H    2.793000000   2.238000000   0.675000000
  S   -2.238500000  -1.589800000   0.570400000
  C   -3.364500000  -0.552800000   0.024400000
  C   -4.820500000  -0.908800000  -0.035600000
  C   -3.031500000   0.827200000  -0.455600000
  H   -3.364500000   0.949200000  -1.489600000
  H   -3.582500000   1.566200000   0.133400000
  H   -1.969500000   1.034200000  -0.391600000
  H   -5.004500000  -1.915800000   0.322400000
  H   -5.182500000  -0.816800000  -1.063600000
  H   -5.401500000  -0.198800000   0.559400000
