15
charge=0 charge_a=0 charge_b=0 selection_a=1-5 selection_b=6-15 scaling=2.0 benchmark_Eint=0.003 benchmark_unit=kcal/mol group=Br
  C    2.840000000   1.379000000   0.018000000
 Br    1.166000000   0.377000000   0.214000000
  H    3.654000000   0.721000000   0.297000000
  H    2.926000000   1.684000000  -1.017000000
  H    2.793000000   2.238000000   0.675000000
  S   -5.024000000  -3.199000000   0.862000000
  C   -6.150000000  -2.162000000   0.316000000
  C   -7.606000000  -2.518000000   0.256000000
  C   -5.817000000  -0.782000000  -0.164000000
  H   -6.150000000  -0.660000000  -1.198000000
  H   -6.368000000  -0.043000000   0.425000000
  H   -4.755000000  -0.575000000  -0.100000000
  H   -7.790000000  -3.525000000   0.614000000
  H   -7.968000000  -2.426000000  -0.772000000
  H   -8.187000000  -1.808000000   0.851000000
