15
charge=0 charge_a=0 charge_b=0 selection_a=1-5 selection_b=6-15 scaling=0.8 benchmark_Eint=3.143 benchmark_unit=kcal/mol group=Br
  C    2.840000000   1.379000000   0.018000000
 Br    1.166000000   0.377000000   0.214000000
  H    3.654000000   0.721000000   0.297000000
  H    2.926000000   1.684000000  -1.017000000
  H    2.793000000   2.238000000   0.675000000
  S   -1.310000000  -1.053400000   0.473200000
  C   -2.436000000  -0.016400000  -0.072800000
  C   -3.892000000  -0.372400000  -0.132800000
  C   -2.103000000   1.363600000  -0.552800000
  H   -2.436000000   1.485600000  -1.586800000
  H   -2.654000000   2.102600000   0.036200000
  H   -1.041000000   1.570600000  -0.488800000
  H   -4.076000000  -1.379400000   0.225200000
  H   -4.254000000  -0.280400000  -1.160800000
  H   -4.473000000   0.337600000   0.462200000
