15
charge=0 charge_a=0 charge_b=0 selection_a=1-10 selection_b=11-15 scaling=1.5 benchmark_Eint=-0.904 benchmark_unit=kcal/mol group=Br
  C   -2.991000000  -0.164000000   0.063000000
  C   -2.349000000  -1.514000000  -0.025000000
  C   -3.303000000  -2.670000000  -0.028000000
  S   -0.738000000  -1.725000000  -0.112000000
  H   -3.680000000  -0.028000000  -0.774000000
  H   -3.596000000  -0.102000000   0.972000000
  H   -2.262000000   0.639000000   0.062000000
  H   -2.786000000  -3.621000000  -0.093000000
  H   -3.997000000  -2.574000000  -0.867000000
  H   -3.912000000  -2.649000000   0.879000000
  C    2.234500000   4.562500000   0.011500000
 Br    1.405500000   2.794500000  -0.023500000
  F    1.303500000   5.514500000   0.096500000
  F    2.945500000   4.770500000  -1.097500000
  F    3.049500000   4.678500000   1.059500000
