14
charge=0 charge_a=0 charge_b=0 selection_a=1-9 selection_b=10-14 scaling=0.85 benchmark_Eint=-0.550 benchmark_unit=kcal/mol group=Br
  S   -0.038000000  -0.062000000  -1.678000000
  C   -1.843000000   0.064000000  -1.622000000
  C    0.388000000   1.697000000  -1.651000000
  H   -2.166000000   0.572000000  -0.716000000
  H   -2.235000000  -0.950000000  -1.619000000
  H   -2.220000000   0.589000000  -2.498000000
  H    0.016000000   2.170000000  -0.744000000
  H   -0.013000000   2.205000000  -2.526000000
  H    1.473000000   1.765000000  -1.666000000
  C   -0.067950000   0.046600000   3.013750000
 Br    0.058050000  -0.150400000   1.071750000
  F   -1.324950000   0.307600000   3.375750000
  F    0.705050000   1.047600000   3.432750000
  F    0.322050000  -1.071400000   3.624750000
