14
charge=0 charge_a=0 charge_b=0 selection_a=1-9 selection_b=10-14 scaling=0.95 benchmark_Eint=-4.116 benchmark_unit=kcal/mol group=Br
  S   -0.038000000  -0.062000000  -1.678000000
  C   -1.843000000   0.064000000  -1.622000000
  C    0.388000000   1.697000000  -1.651000000
  H   -2.166000000   0.572000000  -0.716000000
  H   -2.235000000  -0.950000000  -1.619000000
  H   -2.220000000   0.589000000  -2.498000000
  H    0.016000000   2.170000000  -0.744000000
  H   -0.013000000   2.205000000  -2.526000000
  H    1.473000000   1.765000000  -1.666000000
  C   -0.056650000   0.036200000   3.337250000
 Br    0.069350000  -0.160800000   1.395250000
  F   -1.313650000   0.297200000   3.699250000
  F    0.716350000   1.037200000   3.756250000
  F    0.333350000  -1.081800000   3.948250000
