15
charge=0 charge_a=0 charge_b=0 selection_a=1-10 selection_b=11-15 scaling=0.95 benchmark_Eint=-3.411 benchmark_unit=kcal/mol group=Br
  C   -2.991000000  -0.164000000   0.063000000
  C   -2.349000000  -1.514000000  -0.025000000
  C   -3.303000000  -2.670000000  -0.028000000
  S   -0.738000000  -1.725000000  -0.112000000
  H   -3.680000000  -0.028000000  -0.774000000
  H   -3.596000000  -0.102000000   0.972000000
  H   -2.262000000   0.639000000   0.062000000
  H   -2.786000000  -3.621000000  -0.093000000
  H   -3.997000000  -2.574000000  -0.867000000
  H   -3.912000000  -2.649000000   0.879000000
  C    1.448550000   2.905350000  -0.020950000
 Br    0.619550000   1.137350000  -0.055950000
  F    0.517550000   3.857350000   0.064050000
  F    2.159550000   3.113350000  -1.129950000
  F    2.263550000   3.021350000   1.027050000
