14
charge=0 charge_a=0 charge_b=0 selection_a=1-9 selection_b=10-14 scaling=0.9 benchmark_Eint=-3.060 benchmark_unit=kcal/mol group=Br
  S   -0.038000000  -0.062000000  -1.678000000
  C   -1.843000000   0.064000000  -1.622000000
  C    0.388000000   1.697000000  -1.651000000
  H   -2.166000000   0.572000000  -0.716000000
  H   -2.235000000  -0.950000000  -1.619000000
  H   -2.220000000   0.589000000  -2.498000000
  H    0.016000000   2.170000000  -0.744000000
  H   -0.013000000   2.205000000  -2.526000000
  H    1.473000000   1.765000000  -1.666000000
  C   -0.062300000   0.041400000   3.175500000
 Br    0.063700000  -0.155600000   1.233500000
  F   -1.319300000   0.302400000   3.537500000
  F    0.710700000   1.042400000   3.594500000
  F    0.327700000  -1.076600000   3.786500000
