14
charge=0 charge_a=0 charge_b=0 selection_a=1-9 selection_b=10-14 scaling=1.05 benchmark_Eint=-4.142 benchmark_unit=kcal/mol group=Br
  S   -0.038000000  -0.062000000  -1.678000000
  C   -1.843000000   0.064000000  -1.622000000
  C    0.388000000   1.697000000  -1.651000000
  H   -2.166000000   0.572000000  -0.716000000
  H   -2.235000000  -0.950000000  -1.619000000
  H   -2.220000000   0.589000000  -2.498000000
  H    0.016000000   2.170000000  -0.744000000
  H   -0.013000000   2.205000000  -2.526000000
  H    1.473000000   1.765000000  -1.666000000
  C   -0.045350000   0.025800000   3.660750000
 Br    0.080650000  -0.171200000   1.718750000
  F   -1.302350000   0.286800000   4.022750000
  F    0.727650000   1.026800000   4.079750000
  F    0.344650000  -1.092200000   4.271750000
