11
charge=0 charge_a=0 charge_b=0 selection_a=1-9 selection_b=10-11 scaling=1.1 benchmark_Eint=-10.084 benchmark_unit=kcal/mol group=Br
  S   -0.017000000   0.021000000  -1.499000000
  C   -1.816000000   0.004000000  -1.673000000
  C    0.306000000   1.790000000  -1.673000000
  H   -2.269000000   0.641000000  -0.918000000
  H   -2.141000000  -1.021000000  -1.521000000
  H   -2.097000000   0.331000000  -2.671000000
  H   -0.244000000   2.346000000  -0.918000000
  H    0.032000000   2.123000000  -2.671000000
  H    1.372000000   1.935000000  -1.521000000
 Br    0.045700000  -0.053800000   1.495200000
 Br   -0.022300000   0.026200000   3.927200000
