4
charge=0 charge_a=0 charge_b=0 selection_a=1-2 selection_b=3-4 scaling=1.05 benchmark_Eint=-0.725 benchmark_unit=kcal/mol group=Br
  F   -0.054000000   0.000000000  -1.266000000
  F   -1.372000000   0.000000000  -1.729000000
 Br   -0.097050000   0.000000000   2.040450000
 Br    0.119950000   0.000000000   4.343450000
