4
charge=0 charge_a=0 charge_b=0 selection_a=1-2 selection_b=3-4 scaling=1.5 benchmark_Eint=-0.360 benchmark_unit=kcal/mol group=Br
 Cl   -0.018000000   0.000000000  -1.514000000
 Cl   -2.009000000   0.000000000  -1.776000000
 Br    0.039000000   0.000000000   3.368500000
 Br    0.016000000   0.000000000   5.689500000
