4
charge=0 charge_a=0 charge_b=0 selection_a=1-2 selection_b=3-4 scaling=0.9 benchmark_Eint=-1.103 benchmark_unit=kcal/mol group=Br
 Cl   -0.018000000   0.000000000  -1.514000000
 Cl   -2.009000000   0.000000000  -1.776000000
 Br    0.016200000   0.000000000   1.415500000
 Br   -0.006800000   0.000000000   3.736500000
