4
charge=0 charge_a=0 charge_b=0 selection_a=1-2 selection_b=3-4 scaling=0.8 benchmark_Eint=4.050 benchmark_unit=kcal/mol group=Br
 Cl   -0.018000000   0.000000000  -1.514000000
 Cl   -2.009000000   0.000000000  -1.776000000
 Br    0.012400000   0.000000000   1.090000000
 Br   -0.010600000   0.000000000   3.411000000
