7
charge=0 charge_a=0 charge_b=0 selection_a=1-2 selection_b=3-7 scaling=1.05 benchmark_Eint=-1.346 benchmark_unit=kcal/mol group=Br
 Cl   -0.023000000   0.166000000  -1.733000000
 Cl   -1.986000000  -0.230000000  -1.570000000
  C    0.000250000   0.004050000   3.936450000
 Br    0.108250000   0.083050000   1.993450000
  F   -1.247750000  -0.253950000   4.317450000
  F    0.375250000   1.165050000   4.465450000
  F    0.795250000  -0.953950000   4.403450000
