7
charge=0 charge_a=0 charge_b=0 selection_a=1-2 selection_b=3-7 scaling=2.0 benchmark_Eint=-0.067 benchmark_unit=kcal/mol group=Br
 Br   -0.009000000   0.174000000  -1.858000000
 Br   -2.262000000  -0.247000000  -1.559000000
  C    0.107000000  -0.074000000   7.398000000
 Br    0.237000000   0.006000000   5.456000000
  F   -1.148000000  -0.314000000   7.766000000
  F    0.494000000   1.080000000   7.934000000
  F    0.883000000  -1.045000000   7.872000000
