7
charge=0 charge_a=0 charge_b=0 selection_a=1-2 selection_b=3-7 scaling=1.1 benchmark_Eint=-1.372 benchmark_unit=kcal/mol group=Br
 Br   -0.009000000   0.174000000  -1.858000000
 Br   -2.262000000  -0.247000000  -1.559000000
  C   -0.003700000   0.001600000   4.106700000
 Br    0.126300000   0.081600000   2.164700000
  F   -1.258700000  -0.238400000   4.474700000
  F    0.383300000   1.155600000   4.642700000
  F    0.772300000  -0.969400000   4.580700000
