4
charge=0 charge_a=0 charge_b=0 selection_a=1-2 selection_b=3-4 scaling=0.95 benchmark_Eint=-2.259 benchmark_unit=kcal/mol group=Br
 Br   -0.826000000   0.000000000  -0.432000000
 Br   -1.224000000   0.000000000  -2.726000000
 Br   -0.239850000   0.000000000   2.628900000
 Br    2.064150000   0.000000000   2.463900000
