7
charge=0 charge_a=0 charge_b=0 selection_a=1-2 selection_b=3-7 scaling=0.9 benchmark_Eint=-1.323 benchmark_unit=kcal/mol group=Br
 Br   -0.009000000   0.174000000  -1.858000000
 Br   -2.262000000  -0.247000000  -1.559000000
  C   -0.028300000   0.018400000   3.375300000
 Br    0.101700000   0.098400000   1.433300000
  F   -1.283300000  -0.221600000   3.743300000
  F    0.358700000   1.172400000   3.911300000
  F    0.747700000  -0.952600000   3.849300000
