7
charge=0 charge_a=0 charge_b=0 selection_a=1-2 selection_b=3-7 scaling=2.0 benchmark_Eint=-0.082 benchmark_unit=kcal/mol group=Br
  I    0.015000000   0.169000000  -2.019000000
  I   -2.587000000  -0.258000000  -1.503000000
  C    0.115000000  -0.061000000   7.501000000
 Br    0.315000000   0.021000000   5.565000000
  F   -1.157000000  -0.273000000   7.825000000
  F    0.510000000   1.083000000   8.055000000
  F    0.851000000  -1.050000000   8.000000000
