7
charge=0 charge_a=0 charge_b=0 selection_a=1-2 selection_b=3-7 scaling=1.05 benchmark_Eint=-1.885 benchmark_unit=kcal/mol group=Br
  I    0.015000000   0.169000000  -2.019000000
  I   -2.587000000  -0.258000000  -1.503000000
  C   -0.027500000   0.009300000   3.898600000
 Br    0.172500000   0.091300000   1.962600000
  F   -1.299500000  -0.202700000   4.222600000
  F    0.367500000   1.153300000   4.452600000
  F    0.708500000  -0.979700000   4.397600000
