4
charge=0 charge_a=0 charge_b=0 selection_a=1-2 selection_b=3-4 scaling=0.8 benchmark_Eint=7.362 benchmark_unit=kcal/mol group=Br
  I    0.002000000   0.000000000  -1.652000000
  I   -2.668000000   0.000000000  -1.922000000
 Br    0.007600000   0.000000000   0.981600000
 Br   -0.033400000   0.000000000   3.329600000
