4
charge=0 charge_a=0 charge_b=0 selection_a=1-2 selection_b=3-4 scaling=0.95 benchmark_Eint=-2.904 benchmark_unit=kcal/mol group=Br
  I    0.002000000   0.000000000  -1.652000000
  I   -2.668000000   0.000000000  -1.922000000
 Br    0.008650000   0.000000000   1.475400000
 Br   -0.032350000   0.000000000   3.823400000
