7
charge=0 charge_a=0 charge_b=0 selection_a=1-2 selection_b=3-7 scaling=1.0 benchmark_Eint=-2.048 benchmark_unit=kcal/mol group=Br
  I    0.015000000   0.169000000  -2.019000000
  I   -2.587000000  -0.258000000  -1.503000000
  C   -0.035000000   0.013000000   3.709000000
 Br    0.165000000   0.095000000   1.773000000
  F   -1.307000000  -0.199000000   4.033000000
  F    0.360000000   1.157000000   4.263000000
  F    0.701000000  -0.976000000   4.208000000
