7
charge=0 charge_a=0 charge_b=0 selection_a=1-2 selection_b=3-7 scaling=0.9 benchmark_Eint=-1.424 benchmark_unit=kcal/mol group=Br
  I    0.015000000   0.169000000  -2.019000000
  I   -2.587000000  -0.258000000  -1.503000000
  C   -0.050000000   0.020400000   3.329800000
 Br    0.150000000   0.102400000   1.393800000
  F   -1.322000000  -0.191600000   3.653800000
  F    0.345000000   1.164400000   3.883800000
  F    0.686000000  -0.968600000   3.828800000
