17
charge=0 charge_a=0 charge_b=0 selection_a=1-12 selection_b=13-17 scaling=2.0 benchmark_Eint=-0.060 benchmark_unit=kcal/mol group=I
  C    0.041000000  -0.017000000  -1.729000000
  C   -1.344000000  -0.018000000  -1.611000000
  C    0.734000000   1.188000000  -1.770000000
  C   -2.036000000   1.185000000  -1.535000000
  C    0.042000000   2.390000000  -1.694000000
  C   -1.343000000   2.388000000  -1.577000000
  H    0.580000000  -0.953000000  -1.781000000
  H   -1.882000000  -0.955000000  -1.571000000
  H    1.811000000   1.188000000  -1.854000000
  H   -3.113000000   1.183000000  -1.435000000
  H    0.581000000   3.326000000  -1.721000000
  H   -1.881000000   3.324000000  -1.512000000
  I   -0.585000000   0.197000000   5.457000000
  C   -0.403000000   0.146000000   7.603000000
  H   -1.376000000   0.372000000   8.021000000
  H   -0.077000000  -0.847000000   7.882000000
  H    0.328000000   0.893000000   7.888000000
