17
charge=0 charge_a=0 charge_b=0 selection_a=1-12 selection_b=13-17 scaling=2.0 benchmark_Eint=-0.260 benchmark_unit=kcal/mol group=I
  C   -1.275000000   2.339000000  -1.338000000
  C   -1.986000000   1.145000000  -1.324000000
  C   -1.326000000  -0.061000000  -1.522000000
  C    0.049000000  -0.074000000  -1.734000000
  C    0.762000000   1.122000000  -1.748000000
  C    0.098000000   2.328000000  -1.549000000
  H    0.564000000  -1.011000000  -1.888000000
  H   -1.878000000  -0.990000000  -1.506000000
  H    1.830000000   1.112000000  -1.912000000
  H   -3.054000000   1.154000000  -1.154000000
  H    0.653000000   3.256000000  -1.555000000
  H   -1.789000000   3.276000000  -1.179000000
  I    1.501000000   0.702000000   5.028000000
  C    1.795000000   0.552000000   7.166000000
  F    2.245000000   1.706000000   7.665000000
  F    0.648000000   0.254000000   7.782000000
  F    2.683000000  -0.401000000   7.458000000
