14
charge=0 charge_a=0 charge_b=0 selection_a=1-12 selection_b=13-14 scaling=1.5 benchmark_Eint=-1.174 benchmark_unit=kcal/mol group=I
  C   -1.372000000   2.378000000  -1.598000000
  C   -2.078000000   1.179000000  -1.632000000
  C   -1.397000000  -0.030000000  -1.645000000
  C   -0.005000000  -0.043000000  -1.625000000
  C    0.702000000   1.158000000  -1.591000000
  C    0.015000000   2.369000000  -1.578000000
  H    0.528000000  -0.983000000  -1.644000000
  H   -1.944000000  -0.961000000  -1.665000000
  H    1.783000000   1.148000000  -1.584000000
  H   -3.159000000   1.189000000  -1.644000000
  H    0.564000000   3.299000000  -1.546000000
  H   -1.906000000   3.317000000  -1.584000000
  I    0.520500000  -0.082500000   3.167000000
  I    0.769500000  -0.304500000   5.858000000
