17
charge=0 charge_a=0 charge_b=0 selection_a=1-12 selection_b=13-17 scaling=1.5 benchmark_Eint=-0.997 benchmark_unit=kcal/mol group=I
  C   -1.275000000   2.339000000  -1.338000000
  C   -1.986000000   1.145000000  -1.324000000
  C   -1.326000000  -0.061000000  -1.522000000
  C    0.049000000  -0.074000000  -1.734000000
  C    0.762000000   1.122000000  -1.748000000
  C    0.098000000   2.328000000  -1.549000000
  H    0.564000000  -1.011000000  -1.888000000
  H   -1.878000000  -0.990000000  -1.506000000
  H    1.830000000   1.112000000  -1.912000000
  H   -3.054000000   1.154000000  -1.154000000
  H    0.653000000   3.256000000  -1.555000000
  H   -1.789000000   3.276000000  -1.179000000
  I    1.138000000   0.508000000   3.337500000
  C    1.432000000   0.358000000   5.475500000
  F    1.882000000   1.512000000   5.974500000
  F    0.285000000   0.060000000   6.091500000
  F    2.320000000  -0.595000000   5.767500000
