22
charge=0 charge_a=0 charge_b=0 selection_a=1-12 selection_b=13-22 scaling=0.9 benchmark_Eint=-2.726 benchmark_unit=kcal/mol group=I
  C    5.034000000  -0.136000000  -0.604000000
  C    4.298000000  -1.078000000  -1.312000000
  C    2.912000000  -1.103000000  -1.216000000
  C    2.263000000  -0.178000000  -0.406000000
  C    2.992000000   0.768000000   0.306000000
  C    4.378000000   0.785000000   0.203000000
  I    0.153000000  -0.210000000  -0.255000000
  H    2.343000000  -1.836000000  -1.768000000
  H    2.486000000   1.485000000   0.935000000
  H    4.801000000  -1.798000000  -1.943000000
  H    4.943000000   1.521000000   0.758000000
  H    6.112000000  -0.119000000  -0.681000000
  N   -2.595600000  -0.252300000  -0.057900000
  C   -3.225600000  -1.147300000   0.697100000
  C   -4.612600000  -1.166300000   0.795100000
  N   -5.374600000  -0.294300000   0.140100000
  C   -4.739600000   0.598700000  -0.613900000
  C   -3.353600000   0.621700000  -0.714900000
  H   -2.613600000  -1.860300000   1.233100000
  H   -5.114600000  -1.899300000   1.413100000
  H   -2.845600000   1.351700000  -1.330900000
  H   -5.347600000   1.314700000  -1.152900000
