15
charge=0 charge_a=0 charge_b=0 selection_a=1-10 selection_b=11-15 scaling=2.0 benchmark_Eint=-0.104 benchmark_unit=kcal/mol group=I
  N   -1.410000000   0.001000000   0.000000000
  N   -4.197000000   0.003000000   0.000000000
  C   -2.107000000  -1.131000000   0.033000000
  C   -3.497000000  -1.128000000   0.033000000
  C   -2.105000000   1.134000000  -0.033000000
  C   -3.496000000   1.133000000  -0.033000000
  H   -1.546000000  -2.056000000   0.060000000
  H   -4.054000000  -2.056000000   0.061000000
  H   -1.543000000   2.058000000  -0.060000000
  H   -4.052000000   2.062000000  -0.060000000
  I    4.760000000  -0.003000000  -0.002000000
  C    6.920000000  -0.004000000  -0.001000000
  H    7.253000000   0.045000000   1.028000000
  H    7.252000000  -0.921000000  -0.473000000
  H    7.253000000   0.862000000  -0.559000000
