15
charge=0 charge_a=0 charge_b=0 selection_a=1-10 selection_b=11-15 scaling=1.05 benchmark_Eint=-6.181 benchmark_unit=kcal/mol group=I
  N   -1.352000000   0.002000000   0.000000000
  N   -4.134000000   0.002000000   0.000000000
  C   -2.045000000  -1.133000000  -0.008000000
  C   -3.435000000  -1.130000000  -0.008000000
  C   -2.045000000   1.137000000   0.008000000
  C   -3.435000000   1.134000000   0.008000000
  H   -1.482000000  -2.058000000  -0.015000000
  H   -3.991000000  -2.058000000  -0.015000000
  H   -1.483000000   2.062000000   0.015000000
  H   -3.992000000   2.062000000   0.015000000
  F    4.347950000   0.612900000   1.086000000
  F    4.343950000  -1.253100000  -0.009000000
  I    1.691950000  -0.000100000   0.000000000
  F    4.347950000   0.628900000  -1.077000000
  C    3.862950000  -0.003100000   0.000000000
