25
charge=0 charge_a=0 charge_b=0 selection_a=1-12 selection_b=13-25 scaling=1.1 benchmark_Eint=-5.304 benchmark_unit=kcal/mol group=I
  C   -0.193000000   0.058000000   6.335000000
  C    0.583000000   1.031000000   5.717000000
  C    0.824000000   0.974000000   4.349000000
  C    0.285000000  -0.064000000   3.598000000
  C   -0.492000000  -1.041000000   4.209000000
  C   -0.729000000  -0.977000000   5.577000000
  I    0.652000000  -0.157000000   1.509000000
  H    1.428000000   1.733000000   3.874000000
  H   -0.911000000  -1.847000000   3.624000000
  H    1.003000000   1.839000000   6.299000000
  H   -1.334000000  -1.738000000   6.049000000
  H   -0.379000000   0.105000000   7.398000000
  N    1.221800000  -0.302200000  -1.688700000
  C    2.638800000  -0.038200000  -1.872700000
  C    0.858800000  -1.640200000  -2.122700000
  C    0.394800000   0.714800000  -2.315700000
  H   -0.192200000  -1.823200000  -1.906700000
  H    1.450800000  -2.375200000  -1.580700000
  H    1.021800000  -1.789200000  -3.201700000
  H   -0.654200000   0.520800000  -2.098700000
  H    0.523800000   0.744800000  -3.408700000
  H    0.649800000   1.693800000  -1.912700000
  H    2.883800000   0.943800000  -1.472700000
  H    2.935800000  -0.066200000  -2.931700000
  H    3.223800000  -0.781200000  -1.331700000
