18
charge=0 charge_a=0 charge_b=0 selection_a=1-6 selection_b=7-18 scaling=2.0 benchmark_Eint=-0.026 benchmark_unit=kcal/mol group=I
  N   -1.344000000   0.000000000  -0.002000000
  C   -3.944000000   0.000000000   0.001000000
  C   -2.491000000   0.000000000  -0.001000000
  H   -4.318000000  -0.829000000   0.598000000
  H   -4.319000000  -0.102000000  -1.016000000
  H   -4.318000000   0.932000000   0.421000000
  I    5.094000000   0.000000000   0.000000000
  C    7.203000000   0.000000000   0.001000000
  C    7.894000000  -0.555000000  -1.071000000
  C    7.894000000   0.555000000   1.072000000
  C    9.284000000  -0.553000000  -1.065000000
  C    9.284000000   0.553000000   1.067000000
  C    9.982000000   0.000000000   0.001000000
  H    7.355000000  -0.986000000  -1.901000000
  H    7.354000000   0.986000000   1.902000000
  H    9.819000000  -0.985000000  -1.899000000
  H    9.818000000   0.985000000   1.902000000
  H   11.063000000   0.000000000   0.002000000
