25
charge=0 charge_a=0 charge_b=0 selection_a=1-12 selection_b=13-25 scaling=0.9 benchmark_Eint=-4.725 benchmark_unit=kcal/mol group=I
  C   -0.193000000   0.058000000   6.335000000
  C    0.583000000   1.031000000   5.717000000
  C    0.824000000   0.974000000   4.349000000
  C    0.285000000  -0.064000000   3.598000000
  C   -0.492000000  -1.041000000   4.209000000
  C   -0.729000000  -0.977000000   5.577000000
  I    0.652000000  -0.157000000   1.509000000
  H    1.428000000   1.733000000   3.874000000
  H   -0.911000000  -1.847000000   3.624000000
  H    1.003000000   1.839000000   6.299000000
  H   -1.334000000  -1.738000000   6.049000000
  H   -0.379000000   0.105000000   7.398000000
  N    1.118200000  -0.275800000  -1.107300000
  C    2.535200000  -0.011800000  -1.291300000
  C    0.755200000  -1.613800000  -1.541300000
  C    0.291200000   0.741200000  -1.734300000
  H   -0.295800000  -1.796800000  -1.325300000
  H    1.347200000  -2.348800000  -0.999300000
  H    0.918200000  -1.762800000  -2.620300000
  H   -0.757800000   0.547200000  -1.517300000
  H    0.420200000   0.771200000  -2.827300000
  H    0.546200000   1.720200000  -1.331300000
  H    2.780200000   0.970200000  -0.891300000
  H    2.832200000  -0.039800000  -2.350300000
  H    3.120200000  -0.754800000  -0.750300000
