22
charge=0 charge_a=0 charge_b=0 selection_a=1-12 selection_b=13-22 scaling=0.95 benchmark_Eint=-3.723 benchmark_unit=kcal/mol group=I
  C    5.034000000  -0.136000000  -0.604000000
  C    4.298000000  -1.078000000  -1.312000000
  C    2.912000000  -1.103000000  -1.216000000
  C    2.263000000  -0.178000000  -0.406000000
  C    2.992000000   0.768000000   0.306000000
  C    4.378000000   0.785000000   0.203000000
  I    0.153000000  -0.210000000  -0.255000000
  H    2.343000000  -1.836000000  -1.768000000
  H    2.486000000   1.485000000   0.935000000
  H    4.801000000  -1.798000000  -1.943000000
  H    4.943000000   1.521000000   0.758000000
  H    6.112000000  -0.119000000  -0.681000000
  N   -2.748300000  -0.254650000  -0.046950000
  C   -3.378300000  -1.149650000   0.708050000
  C   -4.765300000  -1.168650000   0.806050000
  N   -5.527300000  -0.296650000   0.151050000
  C   -4.892300000   0.596350000  -0.602950000
  C   -3.506300000   0.619350000  -0.703950000
  H   -2.766300000  -1.862650000   1.244050000
  H   -5.267300000  -1.901650000   1.424050000
  H   -2.998300000   1.349350000  -1.319950000
  H   -5.500300000   1.312350000  -1.141950000
