25
charge=0 charge_a=0 charge_b=0 selection_a=1-12 selection_b=13-25 scaling=1.5 benchmark_Eint=-1.429 benchmark_unit=kcal/mol group=I
  C   -0.193000000   0.058000000   6.335000000
  C    0.583000000   1.031000000   5.717000000
  C    0.824000000   0.974000000   4.349000000
  C    0.285000000  -0.064000000   3.598000000
  C   -0.492000000  -1.041000000   4.209000000
  C   -0.729000000  -0.977000000   5.577000000
  I    0.652000000  -0.157000000   1.509000000
  H    1.428000000   1.733000000   3.874000000
  H   -0.911000000  -1.847000000   3.624000000
  H    1.003000000   1.839000000   6.299000000
  H   -1.334000000  -1.738000000   6.049000000
  H   -0.379000000   0.105000000   7.398000000
  N    1.429000000  -0.355000000  -2.851500000
  C    2.846000000  -0.091000000  -3.035500000
  C    1.066000000  -1.693000000  -3.285500000
  C    0.602000000   0.662000000  -3.478500000
  H    0.015000000  -1.876000000  -3.069500000
  H    1.658000000  -2.428000000  -2.743500000
  H    1.229000000  -1.842000000  -4.364500000
  H   -0.447000000   0.468000000  -3.261500000
  H    0.731000000   0.692000000  -4.571500000
  H    0.857000000   1.641000000  -3.075500000
  H    3.091000000   0.891000000  -2.635500000
  H    3.143000000  -0.119000000  -4.094500000
  H    3.431000000  -0.834000000  -2.494500000
