25
charge=0 charge_a=0 charge_b=0 selection_a=1-12 selection_b=13-25 scaling=0.85 benchmark_Eint=-1.892 benchmark_unit=kcal/mol group=I
  C   -0.193000000   0.058000000   6.335000000
  C    0.583000000   1.031000000   5.717000000
  C    0.824000000   0.974000000   4.349000000
  C    0.285000000  -0.064000000   3.598000000
  C   -0.492000000  -1.041000000   4.209000000
  C   -0.729000000  -0.977000000   5.577000000
  I    0.652000000  -0.157000000   1.509000000
  H    1.428000000   1.733000000   3.874000000
  H   -0.911000000  -1.847000000   3.624000000
  H    1.003000000   1.839000000   6.299000000
  H   -1.334000000  -1.738000000   6.049000000
  H   -0.379000000   0.105000000   7.398000000
  N    1.092300000  -0.269200000  -0.961950000
  C    2.509300000  -0.005200000  -1.145950000
  C    0.729300000  -1.607200000  -1.395950000
  C    0.265300000   0.747800000  -1.588950000
  H   -0.321700000  -1.790200000  -1.179950000
  H    1.321300000  -2.342200000  -0.853950000
  H    0.892300000  -1.756200000  -2.474950000
  H   -0.783700000   0.553800000  -1.371950000
  H    0.394300000   0.777800000  -2.681950000
  H    0.520300000   1.726800000  -1.185950000
  H    2.754300000   0.976800000  -0.745950000
  H    2.806300000  -0.033200000  -2.204950000
  H    3.094300000  -0.748200000  -0.604950000
