18
charge=0 charge_a=0 charge_b=0 selection_a=1-6 selection_b=7-18 scaling=1.0 benchmark_Eint=-2.468 benchmark_unit=kcal/mol group=I
  N   -1.344000000   0.000000000  -0.002000000
  C   -3.944000000   0.000000000   0.001000000
  C   -2.491000000   0.000000000  -0.001000000
  H   -4.318000000  -0.829000000   0.598000000
  H   -4.319000000  -0.102000000  -1.016000000
  H   -4.318000000   0.932000000   0.421000000
  I    1.875000000   0.000000000  -0.001000000
  C    3.984000000   0.000000000   0.000000000
  C    4.675000000  -0.555000000  -1.072000000
  C    4.675000000   0.555000000   1.071000000
  C    6.065000000  -0.553000000  -1.066000000
  C    6.065000000   0.553000000   1.066000000
  C    6.763000000   0.000000000   0.000000000
  H    4.136000000  -0.986000000  -1.902000000
  H    4.135000000   0.986000000   1.901000000
  H    6.600000000  -0.985000000  -1.900000000
  H    6.599000000   0.985000000   1.901000000
  H    7.844000000   0.000000000   0.001000000
