25
charge=0 charge_a=0 charge_b=0 selection_a=1-12 selection_b=13-25 scaling=1.25 benchmark_Eint=-3.438 benchmark_unit=kcal/mol group=I
  C   -0.193000000   0.058000000   6.335000000
  C    0.583000000   1.031000000   5.717000000
  C    0.824000000   0.974000000   4.349000000
  C    0.285000000  -0.064000000   3.598000000
  C   -0.492000000  -1.041000000   4.209000000
  C   -0.729000000  -0.977000000   5.577000000
  I    0.652000000  -0.157000000   1.509000000
  H    1.428000000   1.733000000   3.874000000
  H   -0.911000000  -1.847000000   3.624000000
  H    1.003000000   1.839000000   6.299000000
  H   -1.334000000  -1.738000000   6.049000000
  H   -0.379000000   0.105000000   7.398000000
  N    1.299500000  -0.322000000  -2.124750000
  C    2.716500000  -0.058000000  -2.308750000
  C    0.936500000  -1.660000000  -2.558750000
  C    0.472500000   0.695000000  -2.751750000
  H   -0.114500000  -1.843000000  -2.342750000
  H    1.528500000  -2.395000000  -2.016750000
  H    1.099500000  -1.809000000  -3.637750000
  H   -0.576500000   0.501000000  -2.534750000
  H    0.601500000   0.725000000  -3.844750000
  H    0.727500000   1.674000000  -2.348750000
  H    2.961500000   0.924000000  -1.908750000
  H    3.013500000  -0.086000000  -3.367750000
  H    3.301500000  -0.801000000  -1.767750000
