8
charge=0 charge_a=0 charge_b=0 selection_a=1-2 selection_b=3-8 scaling=1.05 benchmark_Eint=-5.355 benchmark_unit=kcal/mol group=I
  I    1.482000000   0.001000000   0.000000000
  I    4.194000000   0.001000000   0.004000000
  N   -1.536750000   0.002050000  -0.003150000
  C   -4.134750000  -0.000950000  -0.000150000
  C   -2.682750000   0.001050000  -0.002150000
  H   -4.505750000  -0.853950000   0.563850000
  H   -4.507750000  -0.062950000  -1.021150000
  H   -4.507750000   0.914050000   0.456850000
