18
charge=0 charge_a=0 charge_b=0 selection_a=1-6 selection_b=7-18 scaling=1.1 benchmark_Eint=-2.107 benchmark_unit=kcal/mol group=I
  N   -1.344000000   0.000000000  -0.002000000
  C   -3.944000000   0.000000000   0.001000000
  C   -2.491000000   0.000000000  -0.001000000
  H   -4.318000000  -0.829000000   0.598000000
  H   -4.319000000  -0.102000000  -1.016000000
  H   -4.318000000   0.932000000   0.421000000
  I    2.196900000   0.000000000  -0.000900000
  C    4.305900000   0.000000000   0.000100000
  C    4.996900000  -0.555000000  -1.071900000
  C    4.996900000   0.555000000   1.071100000
  C    6.386900000  -0.553000000  -1.065900000
  C    6.386900000   0.553000000   1.066100000
  C    7.084900000   0.000000000   0.000100000
  H    4.457900000  -0.986000000  -1.901900000
  H    4.456900000   0.986000000   1.901100000
  H    6.921900000  -0.985000000  -1.899900000
  H    6.920900000   0.985000000   1.901100000
  H    8.165900000   0.000000000   0.001100000
