22
charge=0 charge_a=0 charge_b=0 selection_a=1-12 selection_b=13-22 scaling=2.0 benchmark_Eint=-0.174 benchmark_unit=kcal/mol group=I
  C    5.034000000  -0.136000000  -0.604000000
  C    4.298000000  -1.078000000  -1.312000000
  C    2.912000000  -1.103000000  -1.216000000
  C    2.263000000  -0.178000000  -0.406000000
  C    2.992000000   0.768000000   0.306000000
  C    4.378000000   0.785000000   0.203000000
  I    0.153000000  -0.210000000  -0.255000000
  H    2.343000000  -1.836000000  -1.768000000
  H    2.486000000   1.485000000   0.935000000
  H    4.801000000  -1.798000000  -1.943000000
  H    4.943000000   1.521000000   0.758000000
  H    6.112000000  -0.119000000  -0.681000000
  N   -5.955000000  -0.304000000   0.183000000
  C   -6.585000000  -1.199000000   0.938000000
  C   -7.972000000  -1.218000000   1.036000000
  N   -8.734000000  -0.346000000   0.381000000
  C   -8.099000000   0.547000000  -0.373000000
  C   -6.713000000   0.570000000  -0.474000000
  H   -5.973000000  -1.912000000   1.474000000
  H   -8.474000000  -1.951000000   1.654000000
  H   -6.205000000   1.300000000  -1.090000000
  H   -8.707000000   1.263000000  -0.912000000
