22
charge=0 charge_a=0 charge_b=0 selection_a=1-12 selection_b=13-22 scaling=0.85 benchmark_Eint=-0.474 benchmark_unit=kcal/mol group=I
  C    5.034000000  -0.136000000  -0.604000000
  C    4.298000000  -1.078000000  -1.312000000
  C    2.912000000  -1.103000000  -1.216000000
  C    2.263000000  -0.178000000  -0.406000000
  C    2.992000000   0.768000000   0.306000000
  C    4.378000000   0.785000000   0.203000000
  I    0.153000000  -0.210000000  -0.255000000
  H    2.343000000  -1.836000000  -1.768000000
  H    2.486000000   1.485000000   0.935000000
  H    4.801000000  -1.798000000  -1.943000000
  H    4.943000000   1.521000000   0.758000000
  H    6.112000000  -0.119000000  -0.681000000
  N   -2.442900000  -0.249950000  -0.068850000
  C   -3.072900000  -1.144950000   0.686150000
  C   -4.459900000  -1.163950000   0.784150000
  N   -5.221900000  -0.291950000   0.129150000
  C   -4.586900000   0.601050000  -0.624850000
  C   -3.200900000   0.624050000  -0.725850000
  H   -2.460900000  -1.857950000   1.222150000
  H   -4.961900000  -1.896950000   1.402150000
  H   -2.692900000   1.354050000  -1.341850000
  H   -5.194900000   1.317050000  -1.163850000
