8
charge=0 charge_a=0 charge_b=0 selection_a=1-2 selection_b=3-8 scaling=0.95 benchmark_Eint=-5.084 benchmark_unit=kcal/mol group=I
  I    1.482000000   0.001000000   0.000000000
  I    4.194000000   0.001000000   0.004000000
  N   -1.249250000   0.001950000  -0.002850000
  C   -3.847250000  -0.001050000   0.000150000
  C   -2.395250000   0.000950000  -0.001850000
  H   -4.218250000  -0.854050000   0.564150000
  H   -4.220250000  -0.063050000  -1.020850000
  H   -4.220250000   0.913950000   0.457150000
