18
charge=0 charge_a=0 charge_b=0 selection_a=1-6 selection_b=7-18 scaling=1.05 benchmark_Eint=-2.353 benchmark_unit=kcal/mol group=I
  N   -1.344000000   0.000000000  -0.002000000
  C   -3.944000000   0.000000000   0.001000000
  C   -2.491000000   0.000000000  -0.001000000
  H   -4.318000000  -0.829000000   0.598000000
  H   -4.319000000  -0.102000000  -1.016000000
  H   -4.318000000   0.932000000   0.421000000
  I    2.035950000   0.000000000  -0.000950000
  C    4.144950000   0.000000000   0.000050000
  C    4.835950000  -0.555000000  -1.071950000
  C    4.835950000   0.555000000   1.071050000
  C    6.225950000  -0.553000000  -1.065950000
  C    6.225950000   0.553000000   1.066050000
  C    6.923950000   0.000000000   0.000050000
  H    4.296950000  -0.986000000  -1.901950000
  H    4.295950000   0.986000000   1.901050000
  H    6.760950000  -0.985000000  -1.899950000
  H    6.759950000   0.985000000   1.901050000
  H    8.004950000   0.000000000   0.001050000
