8
charge=0 charge_a=0 charge_b=0 selection_a=1-2 selection_b=3-8 scaling=1.1 benchmark_Eint=-5.004 benchmark_unit=kcal/mol group=I
  I    1.482000000   0.001000000   0.000000000
  I    4.194000000   0.001000000   0.004000000
  N   -1.680500000   0.002100000  -0.003300000
  C   -4.278500000  -0.000900000  -0.000300000
  C   -2.826500000   0.001100000  -0.002300000
  H   -4.649500000  -0.853900000   0.563700000
  H   -4.651500000  -0.062900000  -1.021300000
  H   -4.651500000   0.914100000   0.456700000
