25
charge=0 charge_a=0 charge_b=0 selection_a=1-12 selection_b=13-25 scaling=0.95 benchmark_Eint=-5.905 benchmark_unit=kcal/mol group=I
  C   -0.193000000   0.058000000   6.335000000
  C    0.583000000   1.031000000   5.717000000
  C    0.824000000   0.974000000   4.349000000
  C    0.285000000  -0.064000000   3.598000000
  C   -0.492000000  -1.041000000   4.209000000
  C   -0.729000000  -0.977000000   5.577000000
  I    0.652000000  -0.157000000   1.509000000
  H    1.428000000   1.733000000   3.874000000
  H   -0.911000000  -1.847000000   3.624000000
  H    1.003000000   1.839000000   6.299000000
  H   -1.334000000  -1.738000000   6.049000000
  H   -0.379000000   0.105000000   7.398000000
  N    1.144100000  -0.282400000  -1.252650000
  C    2.561100000  -0.018400000  -1.436650000
  C    0.781100000  -1.620400000  -1.686650000
  C    0.317100000   0.734600000  -1.879650000
  H   -0.269900000  -1.803400000  -1.470650000
  H    1.373100000  -2.355400000  -1.144650000
  H    0.944100000  -1.769400000  -2.765650000
  H   -0.731900000   0.540600000  -1.662650000
  H    0.446100000   0.764600000  -2.972650000
  H    0.572100000   1.713600000  -1.476650000
  H    2.806100000   0.963600000  -1.036650000
  H    2.858100000  -0.046400000  -2.495650000
  H    3.146100000  -0.761400000  -0.895650000
