15
charge=0 charge_a=0 charge_b=0 selection_a=1-10 selection_b=11-15 scaling=0.95 benchmark_Eint=-6.112 benchmark_unit=kcal/mol group=I
  N   -1.352000000   0.002000000   0.000000000
  N   -4.134000000   0.002000000   0.000000000
  C   -2.045000000  -1.133000000  -0.008000000
  C   -3.435000000  -1.130000000  -0.008000000
  C   -2.045000000   1.137000000   0.008000000
  C   -3.435000000   1.134000000   0.008000000
  H   -1.482000000  -2.058000000  -0.015000000
  H   -3.991000000  -2.058000000  -0.015000000
  H   -1.483000000   2.062000000   0.015000000
  H   -3.992000000   2.062000000   0.015000000
  F    4.058050000   0.613100000   1.086000000
  F    4.054050000  -1.252900000  -0.009000000
  I    1.402050000   0.000100000   0.000000000
  F    4.058050000   0.629100000  -1.077000000
  C    3.573050000  -0.002900000   0.000000000
