22
charge=0 charge_a=0 charge_b=0 selection_a=1-12 selection_b=13-22 scaling=1.05 benchmark_Eint=-3.846 benchmark_unit=kcal/mol group=I
  C    5.034000000  -0.136000000  -0.604000000
  C    4.298000000  -1.078000000  -1.312000000
  C    2.912000000  -1.103000000  -1.216000000
  C    2.263000000  -0.178000000  -0.406000000
  C    2.992000000   0.768000000   0.306000000
  C    4.378000000   0.785000000   0.203000000
  I    0.153000000  -0.210000000  -0.255000000
  H    2.343000000  -1.836000000  -1.768000000
  H    2.486000000   1.485000000   0.935000000
  H    4.801000000  -1.798000000  -1.943000000
  H    4.943000000   1.521000000   0.758000000
  H    6.112000000  -0.119000000  -0.681000000
  N   -3.053700000  -0.259350000  -0.025050000
  C   -3.683700000  -1.154350000   0.729950000
  C   -5.070700000  -1.173350000   0.827950000
  N   -5.832700000  -0.301350000   0.172950000
  C   -5.197700000   0.591650000  -0.581050000
  C   -3.811700000   0.614650000  -0.682050000
  H   -3.071700000  -1.867350000   1.265950000
  H   -5.572700000  -1.906350000   1.445950000
  H   -3.303700000   1.344650000  -1.298050000
  H   -5.805700000   1.307650000  -1.120050000
