18
charge=0 charge_a=0 charge_b=0 selection_a=1-6 selection_b=7-18 scaling=0.95 benchmark_Eint=-2.299 benchmark_unit=kcal/mol group=I
  N   -1.344000000   0.000000000  -0.002000000
  C   -3.944000000   0.000000000   0.001000000
  C   -2.491000000   0.000000000  -0.001000000
  H   -4.318000000  -0.829000000   0.598000000
  H   -4.319000000  -0.102000000  -1.016000000
  H   -4.318000000   0.932000000   0.421000000
  I    1.714050000   0.000000000  -0.001050000
  C    3.823050000   0.000000000  -0.000050000
  C    4.514050000  -0.555000000  -1.072050000
  C    4.514050000   0.555000000   1.070950000
  C    5.904050000  -0.553000000  -1.066050000
  C    5.904050000   0.553000000   1.065950000
  C    6.602050000   0.000000000  -0.000050000
  H    3.975050000  -0.986000000  -1.902050000
  H    3.974050000   0.986000000   1.900950000
  H    6.439050000  -0.985000000  -1.900050000
  H    6.438050000   0.985000000   1.900950000
  H    7.683050000   0.000000000   0.000950000
