22
charge=0 charge_a=0 charge_b=0 selection_a=1-12 selection_b=13-22 scaling=1.0 benchmark_Eint=-3.987 benchmark_unit=kcal/mol group=I
  C    5.034000000  -0.136000000  -0.604000000
  C    4.298000000  -1.078000000  -1.312000000
  C    2.912000000  -1.103000000  -1.216000000
  C    2.263000000  -0.178000000  -0.406000000
  C    2.992000000   0.768000000   0.306000000
  C    4.378000000   0.785000000   0.203000000
  I    0.153000000  -0.210000000  -0.255000000
  H    2.343000000  -1.836000000  -1.768000000
  H    2.486000000   1.485000000   0.935000000
  H    4.801000000  -1.798000000  -1.943000000
  H    4.943000000   1.521000000   0.758000000
  H    6.112000000  -0.119000000  -0.681000000
  N   -2.901000000  -0.257000000  -0.036000000
  C   -3.531000000  -1.152000000   0.719000000
  C   -4.918000000  -1.171000000   0.817000000
  N   -5.680000000  -0.299000000   0.162000000
  C   -5.045000000   0.594000000  -0.592000000
  C   -3.659000000   0.617000000  -0.693000000
  H   -2.919000000  -1.865000000   1.255000000
  H   -5.420000000  -1.904000000   1.435000000
  H   -3.151000000   1.347000000  -1.309000000
  H   -5.653000000   1.310000000  -1.131000000
