22
charge=0 charge_a=0 charge_b=0 selection_a=1-12 selection_b=13-22 scaling=1.1 benchmark_Eint=-3.506 benchmark_unit=kcal/mol group=I
  C    5.034000000  -0.136000000  -0.604000000
  C    4.298000000  -1.078000000  -1.312000000
  C    2.912000000  -1.103000000  -1.216000000
  C    2.263000000  -0.178000000  -0.406000000
  C    2.992000000   0.768000000   0.306000000
  C    4.378000000   0.785000000   0.203000000
  I    0.153000000  -0.210000000  -0.255000000
  H    2.343000000  -1.836000000  -1.768000000
  H    2.486000000   1.485000000   0.935000000
  H    4.801000000  -1.798000000  -1.943000000
  H    4.943000000   1.521000000   0.758000000
  H    6.112000000  -0.119000000  -0.681000000
  N   -3.206400000  -0.261700000  -0.014100000
  C   -3.836400000  -1.156700000   0.740900000
  C   -5.223400000  -1.175700000   0.838900000
  N   -5.985400000  -0.303700000   0.183900000
  C   -5.350400000   0.589300000  -0.570100000
  C   -3.964400000   0.612300000  -0.671100000
  H   -3.224400000  -1.869700000   1.276900000
  H   -5.725400000  -1.908700000   1.456900000
  H   -3.456400000   1.342300000  -1.287100000
  H   -5.958400000   1.305300000  -1.109100000
