15
charge=0 charge_a=0 charge_b=0 selection_a=1-10 selection_b=11-15 scaling=1.1 benchmark_Eint=-2.455 benchmark_unit=kcal/mol group=I
  H    0.937000000   2.237000000   0.001000000
  H    0.015000000   3.482000000  -0.878000000
  H    0.014000000   3.485000000   0.875000000
  C    0.030000000   2.833000000   0.000000000
  H   -2.621000000   3.278000000   0.876000000
  H   -2.620000000   3.278000000  -0.876000000
  H   -3.332000000   1.900000000   0.000000000
  C   -2.532000000   2.633000000   0.000000000
  C   -1.189000000   1.941000000   0.000000000
  O   -1.101000000   0.734000000   0.001000000
  I    1.832700000  -1.076600000   0.001000000
  C    3.690700000  -2.171600000   0.000000000
  H    4.500700000  -1.453600000  -0.001000000
  H    3.714700000  -2.783600000   0.893000000
  H    3.713700000  -2.784600000  -0.892000000
