14
charge=0 charge_a=0 charge_b=0 selection_a=1-9 selection_b=10-14 scaling=1.0 benchmark_Eint=-2.092 benchmark_unit=kcal/mol group=I
  C   -2.038000000  -0.980000000  -0.272000000
  O   -1.306000000   0.168000000  -0.230000000
  C   -2.165000000   1.180000000   0.075000000
  C   -3.421000000   0.697000000   0.225000000
  C   -3.338000000  -0.715000000  -0.002000000
  H   -4.299000000   1.269000000   0.467000000
  H   -4.141000000  -1.430000000   0.034000000
  H   -1.729000000   2.158000000   0.147000000
  H   -1.494000000  -1.877000000  -0.502000000
  I    1.787000000   1.047000000  -0.067000000
  C    3.797000000   1.804000000   0.084000000
  H    3.912000000   2.240000000   1.069000000
  H    4.474000000   0.971000000  -0.056000000
  H    3.928000000   2.549000000  -0.691000000
