21
charge=0 charge_a=0 charge_b=0 selection_a=1-9 selection_b=10-21 scaling=1.0 benchmark_Eint=-2.334 benchmark_unit=kcal/mol group=I
  O   -1.334000000  -0.005000000   0.000000000
  C   -3.445000000   0.704000000   0.000000000
  C   -3.440000000  -0.729000000   0.000000000
  C   -2.147000000   1.089000000   0.000000000
  C   -2.139000000  -1.104000000   0.000000000
  H   -4.302000000   1.353000000   0.000000000
  H   -4.292000000  -1.384000000   0.000000000
  H   -1.652000000   2.042000000   0.000000000
  H   -1.638000000  -2.053000000   0.000000000
  I    1.841000000   0.007000000   0.000000000
  C    3.950000000   0.015000000   0.000000000
  C    4.642000000  -1.191000000   0.000000000
  C    4.633000000   1.225000000   0.000000000
  C    6.032000000  -1.179000000   0.000000000
  C    6.023000000   1.223000000   0.000000000
  C    6.725000000   0.025000000   0.000000000
  H    4.106000000  -2.128000000   0.000000000
  H    4.090000000   2.158000000   0.000000000
  H    6.570000000  -2.117000000   0.000000000
  H    6.555000000   2.165000000   0.000000000
  H    7.806000000   0.029000000   0.000000000
