21
charge=0 charge_a=0 charge_b=0 selection_a=1-9 selection_b=10-21 scaling=1.05 benchmark_Eint=-2.212 benchmark_unit=kcal/mol group=I
  O   -1.334000000  -0.005000000   0.000000000
  C   -3.445000000   0.704000000   0.000000000
  C   -3.440000000  -0.729000000   0.000000000
  C   -2.147000000   1.089000000   0.000000000
  C   -2.139000000  -1.104000000   0.000000000
  H   -4.302000000   1.353000000   0.000000000
  H   -4.292000000  -1.384000000   0.000000000
  H   -1.652000000   2.042000000   0.000000000
  H   -1.638000000  -2.053000000   0.000000000
  I    1.999750000   0.007600000   0.000000000
  C    4.108750000   0.015600000   0.000000000
  C    4.800750000  -1.190400000   0.000000000
  C    4.791750000   1.225600000   0.000000000
  C    6.190750000  -1.178400000   0.000000000
  C    6.181750000   1.223600000   0.000000000
  C    6.883750000   0.025600000   0.000000000
  H    4.264750000  -2.127400000   0.000000000
  H    4.248750000   2.158600000   0.000000000
  H    6.728750000  -2.116400000   0.000000000
  H    6.713750000   2.165600000   0.000000000
  H    7.964750000   0.029600000   0.000000000
