21
charge=0 charge_a=0 charge_b=0 selection_a=1-9 selection_b=10-21 scaling=0.9 benchmark_Eint=-1.521 benchmark_unit=kcal/mol group=I
  O   -1.334000000  -0.005000000   0.000000000
  C   -3.445000000   0.704000000   0.000000000
  C   -3.440000000  -0.729000000   0.000000000
  C   -2.147000000   1.089000000   0.000000000
  C   -2.139000000  -1.104000000   0.000000000
  H   -4.302000000   1.353000000   0.000000000
  H   -4.292000000  -1.384000000   0.000000000
  H   -1.652000000   2.042000000   0.000000000
  H   -1.638000000  -2.053000000   0.000000000
  I    1.523500000   0.005800000   0.000000000
  C    3.632500000   0.013800000   0.000000000
  C    4.324500000  -1.192200000   0.000000000
  C    4.315500000   1.223800000   0.000000000
  C    5.714500000  -1.180200000   0.000000000
  C    5.705500000   1.221800000   0.000000000
  C    6.407500000   0.023800000   0.000000000
  H    3.788500000  -2.129200000   0.000000000
  H    3.772500000   2.156800000   0.000000000
  H    6.252500000  -2.118200000   0.000000000
  H    6.237500000   2.163800000   0.000000000
  H    7.488500000   0.027800000   0.000000000
