12
charge=0 charge_a=0 charge_b=0 selection_a=1-5 selection_b=6-12 scaling=2.0 benchmark_Eint=-0.148 benchmark_unit=kcal/mol group=I
  C   -2.642000000  -0.336000000   0.365000000
  I   -0.775000000  -0.094000000  -0.684000000
  H   -2.746000000   0.499000000   1.046000000
  H   -3.431000000  -0.340000000  -0.375000000
  H   -2.600000000  -1.276000000   0.900000000
  O    5.323000000   0.988000000  -2.860000000
  N    6.146000000   1.120000000  -1.969000000
  O    6.983000000   2.000000000  -1.909000000
  C    6.106000000   0.113000000  -0.864000000
  H    6.900000000   0.343000000  -0.166000000
  H    6.227000000  -0.865000000  -1.318000000
  H    5.122000000   0.181000000  -0.410000000
