14
charge=0 charge_a=0 charge_b=0 selection_a=1-9 selection_b=10-14 scaling=1.0 benchmark_Eint=-3.439 benchmark_unit=kcal/mol group=I
  C   -1.874000000  -0.906000000  -0.016000000
  O   -1.243000000   0.304000000  -0.020000000
  C   -2.213000000   1.263000000  -0.001000000
  C   -3.437000000   0.686000000   0.015000000
  C   -3.215000000  -0.730000000   0.005000000
  H   -4.382000000   1.197000000   0.032000000
  H   -3.959000000  -1.506000000   0.013000000
  H   -1.869000000   2.280000000  -0.001000000
  H   -1.235000000  -1.769000000  -0.029000000
  I    1.762000000   0.771000000  -0.064000000
  C    3.899000000   1.100000000  -0.096000000
  F    4.256000000   1.795000000  -1.180000000
  F    4.290000000   1.784000000   0.982000000
  F    4.557000000  -0.062000000  -0.112000000
