12
charge=0 charge_a=0 charge_b=0 selection_a=1-5 selection_b=6-12 scaling=1.5 benchmark_Eint=-0.627 benchmark_unit=kcal/mol group=I
  C   -2.642000000  -0.336000000   0.365000000
  I   -0.775000000  -0.094000000  -0.684000000
  H   -2.746000000   0.499000000   1.046000000
  H   -3.431000000  -0.340000000  -0.375000000
  H   -2.600000000  -1.276000000   0.900000000
  O    3.798500000   0.717500000  -2.316000000
  N    4.621500000   0.849500000  -1.425000000
  O    5.458500000   1.729500000  -1.365000000
  C    4.581500000  -0.157500000  -0.320000000
  H    5.375500000   0.072500000   0.378000000
  H    4.702500000  -1.135500000  -0.774000000
  H    3.597500000  -0.089500000   0.134000000
