17
charge=0 charge_a=0 charge_b=0 selection_a=1-12 selection_b=13-17 scaling=1.5 benchmark_Eint=-2.538 benchmark_unit=kcal/mol group=I
  C    5.030000000  -0.258000000  -0.283000000
  C    4.523000000   1.015000000  -0.505000000
  C    3.247000000   1.335000000  -0.097000000
  N    2.464000000   0.418000000   0.533000000
  C    2.946000000  -0.834000000   0.753000000
  C    4.217000000  -1.185000000   0.355000000
  O    1.271000000   0.732000000   0.905000000
  H    2.777000000   2.294000000  -0.235000000
  H    2.253000000  -1.493000000   1.249000000
  H    5.110000000   1.774000000  -1.000000000
  H    4.558000000  -2.190000000   0.549000000
  H    6.027000000  -0.521000000  -0.601000000
  I   -1.409500000  -1.089000000  -1.703500000
  C   -2.641500000  -2.122000000  -3.158500000
  F   -3.860500000  -2.383000000  -2.668500000
  F   -2.798500000  -1.391000000  -4.271500000
  F   -2.090500000  -3.291000000  -3.517500000
