14
charge=0 charge_a=0 charge_b=0 selection_a=1-9 selection_b=10-14 scaling=0.95 benchmark_Eint=-1.953 benchmark_unit=kcal/mol group=I
  C   -2.038000000  -0.980000000  -0.272000000
  O   -1.306000000   0.168000000  -0.230000000
  C   -2.165000000   1.180000000   0.075000000
  C   -3.421000000   0.697000000   0.225000000
  C   -3.338000000  -0.715000000  -0.002000000
  H   -4.299000000   1.269000000   0.467000000
  H   -4.141000000  -1.430000000   0.034000000
  H   -1.729000000   2.158000000   0.147000000
  H   -1.494000000  -1.877000000  -0.502000000
  I    1.632350000   1.003050000  -0.075150000
  C    3.642350000   1.760050000   0.075850000
  H    3.757350000   2.196050000   1.060850000
  H    4.319350000   0.927050000  -0.064150000
  H    3.773350000   2.505050000  -0.699150000
