17
charge=0 charge_a=0 charge_b=0 selection_a=1-5 selection_b=6-17 scaling=1.25 benchmark_Eint=-2.314 benchmark_unit=kcal/mol group=I
  I    0.476000000   2.134000000  -2.476000000
  C   -0.028000000   2.226000000  -4.573000000
  H    0.076000000   3.255000000  -4.894000000
  H   -1.050000000   1.887000000  -4.685000000
  H    0.656000000   1.581000000  -5.110000000
  O    1.746000000   1.686500000   1.025250000
  N    2.809000000   1.000500000   0.835250000
  C    4.037000000   1.577500000   0.963250000
  C    2.730000000  -0.313500000   0.483250000
  C    5.189000000   0.854500000   0.754250000
  C    3.866000000  -1.062500000   0.267250000
  C    5.123000000  -0.487500000   0.402250000
  H    4.004000000   2.619500000   1.233250000
  H    1.723000000  -0.682500000   0.391250000
  H    6.138000000   1.356500000   0.869250000
  H    3.752000000  -2.099500000  -0.009750000
  H    6.019000000  -1.063500000   0.235250000
