14
charge=0 charge_a=0 charge_b=0 selection_a=1-9 selection_b=10-14 scaling=1.5 benchmark_Eint=-0.383 benchmark_unit=kcal/mol group=I
  C   -2.038000000  -0.980000000  -0.272000000
  O   -1.306000000   0.168000000  -0.230000000
  C   -2.165000000   1.180000000   0.075000000
  C   -3.421000000   0.697000000   0.225000000
  C   -3.338000000  -0.715000000  -0.002000000
  H   -4.299000000   1.269000000   0.467000000
  H   -4.141000000  -1.430000000   0.034000000
  H   -1.729000000   2.158000000   0.147000000
  H   -1.494000000  -1.877000000  -0.502000000
  I    3.333500000   1.486500000   0.014500000
  C    5.343500000   2.243500000   0.165500000
  H    5.458500000   2.679500000   1.150500000
  H    6.020500000   1.410500000   0.025500000
  H    5.474500000   2.988500000  -0.609500000
