22
charge=0 charge_a=0 charge_b=0 selection_a=1-10 selection_b=11-22 scaling=0.95 benchmark_Eint=-3.159 benchmark_unit=kcal/mol group=I
  H    0.681000000   1.864000000  -1.025000000
  H   -0.806000000   2.311000000  -1.890000000
  H   -0.019000000   3.496000000  -0.867000000
  C   -0.241000000   2.433000000  -0.963000000
  H   -2.093000000   3.767000000   0.751000000
  H   -2.962000000   2.792000000  -0.417000000
  H   -2.900000000   2.275000000   1.288000000
  C   -2.344000000   2.739000000   0.480000000
  C   -1.078000000   1.964000000   0.202000000
  O   -0.758000000   1.015000000   0.883000000
  I    1.655000000  -0.632300000   0.572350000
  C    3.408000000  -1.780300000   0.308350000
  C    3.386000000  -2.890300000  -0.528650000
  C    4.575000000  -1.421300000   0.972350000
  C    4.543000000  -3.642300000  -0.698650000
  C    5.726000000  -2.180300000   0.795350000
  C    5.714000000  -3.291300000  -0.038650000
  H    2.478000000  -3.167300000  -1.042650000
  H    4.588000000  -0.559300000   1.623350000
  H    4.524000000  -4.505300000  -1.349650000
  H    6.632000000  -1.900300000   1.313350000
  H    6.610000000  -3.878300000  -0.173650000
