19
charge=0 charge_a=0 charge_b=0 selection_a=1-12 selection_b=13-19 scaling=1.05 benchmark_Eint=-2.832 benchmark_unit=kcal/mol group=I
  C   -5.961000000  -0.313000000   0.348000000
  C   -5.053000000  -1.362000000   0.425000000
  C   -3.700000000  -1.140000000   0.195000000
  C   -3.264000000   0.143000000  -0.112000000
  C   -4.162000000   1.201000000  -0.193000000
  C   -5.513000000   0.965000000   0.039000000
  I   -1.213000000   0.491000000  -0.464000000
  H   -2.997000000  -1.956000000   0.254000000
  H   -3.817000000   2.194000000  -0.435000000
  H   -5.394000000  -2.359000000   0.663000000
  H   -6.213000000   1.787000000  -0.025000000
  H   -7.012000000  -0.491000000   0.526000000
  O    2.070350000   1.449650000  -0.448250000
  N    2.400350000   2.061650000   0.554750000
  O    3.024350000   3.104650000   0.568750000
  C    1.992350000   1.469650000   1.865750000
  H    2.380350000   2.095650000   2.657750000
  H    2.393350000   0.461650000   1.902750000
  H    0.906350000   1.425650000   1.868750000
