12
charge=0 charge_a=0 charge_b=0 selection_a=1-5 selection_b=6-12 scaling=0.95 benchmark_Eint=-2.520 benchmark_unit=kcal/mol group=I
  C   -2.642000000  -0.336000000   0.365000000
  I   -0.775000000  -0.094000000  -0.684000000
  H   -2.746000000   0.499000000   1.046000000
  H   -3.431000000  -0.340000000  -0.375000000
  H   -2.600000000  -1.276000000   0.900000000
  O    2.121550000   0.419950000  -1.717600000
  N    2.944550000   0.551950000  -0.826600000
  O    3.781550000   1.431950000  -0.766600000
  C    2.904550000  -0.455050000   0.278400000
  H    3.698550000  -0.225050000   0.976400000
  H    3.025550000  -1.433050000  -0.175600000
  H    1.920550000  -0.387050000   0.732400000
