12
charge=0 charge_a=0 charge_b=0 selection_a=1-5 selection_b=6-12 scaling=1.5 benchmark_Eint=-1.280 benchmark_unit=kcal/mol group=I
  C   -3.153000000  -0.087000000   0.020000000
  F   -3.574000000   0.822000000   0.905000000
  F   -3.540000000   0.312000000  -1.196000000
  F   -3.770000000  -1.242000000   0.290000000
  I   -1.007000000  -0.318000000   0.110000000
  O    3.526000000  -1.215000000   0.363500000
  N    4.290000000  -0.269000000   0.228500000
  O    3.955000000   0.881000000   0.035500000
  C    5.751000000  -0.577000000   0.311500000
  H    6.301000000   0.344000000   0.175500000
  H    5.969000000  -1.304000000  -0.464500000
  H    5.929000000  -1.020000000   1.286500000
