9
charge=0 charge_a=0 charge_b=0 selection_a=1-7 selection_b=8-9 scaling=1.5 benchmark_Eint=-1.377 benchmark_unit=kcal/mol group=I
  C    3.947000000   0.989000000   0.057000000
  N    2.557000000   1.488000000  -0.178000000
  O    1.653000000   0.690000000   0.034000000
  O    2.410000000   2.631000000  -0.556000000
  H    4.637000000   1.791000000  -0.168000000
  H    4.091000000   0.130000000  -0.591000000
  H    4.003000000   0.677000000   1.095000000
  I   -2.496000000   2.004000000  -0.609500000
  I   -5.110000000   2.618000000  -0.945500000
