24
charge=0 charge_a=0 charge_b=0 selection_a=1-12 selection_b=13-24 scaling=1.1 benchmark_Eint=-3.943 benchmark_unit=kcal/mol group=I
  C    4.899000000  -0.485000000   0.000000000
  C    4.712000000   0.891000000   0.000000000
  C    3.442000000   1.422000000   0.000000000
  N    2.340000000   0.618000000   0.000000000
  C    2.510000000  -0.735000000   0.000000000
  C    3.769000000  -1.293000000   0.000000000
  O    1.169000000   1.135000000   0.000000000
  H    3.215000000   2.474000000   0.000000000
  H    1.592000000  -1.297000000   0.000000000
  H    5.552000000   1.570000000   0.000000000
  H    3.852000000  -2.369000000   0.000000000
  H    5.889000000  -0.913000000   0.000000000
  I   -1.625000000  -0.619500000   0.000000000
  C   -3.413000000  -1.745500000   0.000000000
  C   -4.639000000  -1.090500000   0.000000000
  C   -5.815000000  -1.833500000   0.000000000
  C   -5.769000000  -3.222500000   0.000000000
  C   -4.540000000  -3.868500000   0.000000000
  C   -3.359000000  -3.135500000   0.000000000
  H   -4.679000000  -0.011500000   0.000000000
  H   -2.406000000  -3.642500000   0.000000000
  H   -6.767000000  -1.321500000   0.000000000
  H   -4.495000000  -4.949500000   0.000000000
  H   -6.685000000  -3.795500000   0.000000000
