24
charge=0 charge_a=0 charge_b=0 selection_a=1-12 selection_b=13-24 scaling=0.9 benchmark_Eint=-3.448 benchmark_unit=kcal/mol group=I
  C    4.899000000  -0.485000000   0.000000000
  C    4.712000000   0.891000000   0.000000000
  C    3.442000000   1.422000000   0.000000000
  N    2.340000000   0.618000000   0.000000000
  C    2.510000000  -0.735000000   0.000000000
  C    3.769000000  -1.293000000   0.000000000
  O    1.169000000   1.135000000   0.000000000
  H    3.215000000   2.474000000   0.000000000
  H    1.592000000  -1.297000000   0.000000000
  H    5.552000000   1.570000000   0.000000000
  H    3.852000000  -2.369000000   0.000000000
  H    5.889000000  -0.913000000   0.000000000
  I   -1.117000000  -0.300500000   0.000000000
  C   -2.905000000  -1.426500000   0.000000000
  C   -4.131000000  -0.771500000   0.000000000
  C   -5.307000000  -1.514500000   0.000000000
  C   -5.261000000  -2.903500000   0.000000000
  C   -4.032000000  -3.549500000   0.000000000
  C   -2.851000000  -2.816500000   0.000000000
  H   -4.171000000   0.307500000   0.000000000
  H   -1.898000000  -3.323500000   0.000000000
  H   -6.259000000  -1.002500000   0.000000000
  H   -3.987000000  -4.630500000   0.000000000
  H   -6.177000000  -3.476500000   0.000000000
