17
charge=0 charge_a=0 charge_b=0 selection_a=1-5 selection_b=6-17 scaling=2.0 benchmark_Eint=-0.108 benchmark_unit=kcal/mol group=I
  I    0.476000000   2.134000000  -2.476000000
  C   -0.028000000   2.226000000  -4.573000000
  H    0.076000000   3.255000000  -4.894000000
  H   -1.050000000   1.887000000  -4.685000000
  H    0.656000000   1.581000000  -5.110000000
  O    2.508000000   1.418000000   3.126000000
  N    3.571000000   0.732000000   2.936000000
  C    4.799000000   1.309000000   3.064000000
  C    3.492000000  -0.582000000   2.584000000
  C    5.951000000   0.586000000   2.855000000
  C    4.628000000  -1.331000000   2.368000000
  C    5.885000000  -0.756000000   2.503000000
  H    4.766000000   2.351000000   3.334000000
  H    2.485000000  -0.951000000   2.492000000
  H    6.900000000   1.088000000   2.970000000
  H    4.514000000  -2.368000000   2.091000000
  H    6.781000000  -1.332000000   2.336000000
