12
charge=0 charge_a=0 charge_b=0 selection_a=1-5 selection_b=6-12 scaling=0.85 benchmark_Eint=-0.323 benchmark_unit=kcal/mol group=I
  C   -2.642000000  -0.336000000   0.365000000
  I   -0.775000000  -0.094000000  -0.684000000
  H   -2.746000000   0.499000000   1.046000000
  H   -3.431000000  -0.340000000  -0.375000000
  H   -2.600000000  -1.276000000   0.900000000
  O    1.816650000   0.365850000  -1.608800000
  N    2.639650000   0.497850000  -0.717800000
  O    3.476650000   1.377850000  -0.657800000
  C    2.599650000  -0.509150000   0.387200000
  H    3.393650000  -0.279150000   1.085200000
  H    2.720650000  -1.487150000  -0.066800000
  H    1.615650000  -0.441150000   0.841200000
