12
charge=0 charge_a=0 charge_b=0 selection_a=1-5 selection_b=6-12 scaling=1.0 benchmark_Eint=-3.989 benchmark_unit=kcal/mol group=I
  C   -3.153000000  -0.087000000   0.020000000
  F   -3.574000000   0.822000000   0.905000000
  F   -3.540000000   0.312000000  -1.196000000
  F   -3.770000000  -1.242000000   0.290000000
  I   -1.007000000  -0.318000000   0.110000000
  O    2.015000000  -0.916000000   0.279000000
  N    2.779000000   0.030000000   0.144000000
  O    2.444000000   1.180000000  -0.049000000
  C    4.240000000  -0.278000000   0.227000000
  H    4.790000000   0.643000000   0.091000000
  H    4.458000000  -1.005000000  -0.549000000
  H    4.418000000  -0.721000000   1.202000000
