21
charge=0 charge_a=0 charge_b=0 selection_a=1-9 selection_b=10-21 scaling=0.95 benchmark_Eint=-2.190 benchmark_unit=kcal/mol group=I
  O   -1.334000000  -0.005000000   0.000000000
  C   -3.445000000   0.704000000   0.000000000
  C   -3.440000000  -0.729000000   0.000000000
  C   -2.147000000   1.089000000   0.000000000
  C   -2.139000000  -1.104000000   0.000000000
  H   -4.302000000   1.353000000   0.000000000
  H   -4.292000000  -1.384000000   0.000000000
  H   -1.652000000   2.042000000   0.000000000
  H   -1.638000000  -2.053000000   0.000000000
  I    1.682250000   0.006400000   0.000000000
  C    3.791250000   0.014400000   0.000000000
  C    4.483250000  -1.191600000   0.000000000
  C    4.474250000   1.224400000   0.000000000
  C    5.873250000  -1.179600000   0.000000000
  C    5.864250000   1.222400000   0.000000000
  C    6.566250000   0.024400000   0.000000000
  H    3.947250000  -2.128600000   0.000000000
  H    3.931250000   2.157400000   0.000000000
  H    6.411250000  -2.117600000   0.000000000
  H    6.396250000   2.164400000   0.000000000
  H    7.647250000   0.028400000   0.000000000
