14
charge=0 charge_a=0 charge_b=0 selection_a=1-12 selection_b=13-14 scaling=1.5 benchmark_Eint=-3.080 benchmark_unit=kcal/mol group=I
  O    1.459000000   1.141000000   0.000000000
  N    2.656000000   0.648000000   0.000000000
  C    3.714000000   1.502000000   0.000000000
  C    2.877000000  -0.692000000   0.000000000
  C    5.006000000   1.030000000   0.000000000
  C    4.161000000  -1.195000000   0.000000000
  C    5.251000000  -0.338000000   0.000000000
  H    3.439000000   2.543000000   0.000000000
  H    1.987000000  -1.298000000   0.000000000
  H    5.815000000   1.744000000   0.000000000
  H    4.290000000  -2.267000000   0.000000000
  H    6.259000000  -0.722000000   0.000000000
  I   -1.833500000  -1.052000000   0.000000000
  I   -4.157500000  -2.506000000   0.000000000
