24
charge=0 charge_a=0 charge_b=0 selection_a=1-12 selection_b=13-24 scaling=1.05 benchmark_Eint=-4.333 benchmark_unit=kcal/mol group=I
  C    4.899000000  -0.485000000   0.000000000
  C    4.712000000   0.891000000   0.000000000
  C    3.442000000   1.422000000   0.000000000
  N    2.340000000   0.618000000   0.000000000
  C    2.510000000  -0.735000000   0.000000000
  C    3.769000000  -1.293000000   0.000000000
  O    1.169000000   1.135000000   0.000000000
  H    3.215000000   2.474000000   0.000000000
  H    1.592000000  -1.297000000   0.000000000
  H    5.552000000   1.570000000   0.000000000
  H    3.852000000  -2.369000000   0.000000000
  H    5.889000000  -0.913000000   0.000000000
  I   -1.498000000  -0.539750000   0.000000000
  C   -3.286000000  -1.665750000   0.000000000
  C   -4.512000000  -1.010750000   0.000000000
  C   -5.688000000  -1.753750000   0.000000000
  C   -5.642000000  -3.142750000   0.000000000
  C   -4.413000000  -3.788750000   0.000000000
  C   -3.232000000  -3.055750000   0.000000000
  H   -4.552000000   0.068250000   0.000000000
  H   -2.279000000  -3.562750000   0.000000000
  H   -6.640000000  -1.241750000   0.000000000
  H   -4.368000000  -4.869750000   0.000000000
  H   -6.558000000  -3.715750000   0.000000000
