24
charge=0 charge_a=0 charge_b=0 selection_a=1-12 selection_b=13-24 scaling=1.25 benchmark_Eint=-2.565 benchmark_unit=kcal/mol group=I
  C    4.899000000  -0.485000000   0.000000000
  C    4.712000000   0.891000000   0.000000000
  C    3.442000000   1.422000000   0.000000000
  N    2.340000000   0.618000000   0.000000000
  C    2.510000000  -0.735000000   0.000000000
  C    3.769000000  -1.293000000   0.000000000
  O    1.169000000   1.135000000   0.000000000
  H    3.215000000   2.474000000   0.000000000
  H    1.592000000  -1.297000000   0.000000000
  H    5.552000000   1.570000000   0.000000000
  H    3.852000000  -2.369000000   0.000000000
  H    5.889000000  -0.913000000   0.000000000
  I   -2.006000000  -0.858750000   0.000000000
  C   -3.794000000  -1.984750000   0.000000000
  C   -5.020000000  -1.329750000   0.000000000
  C   -6.196000000  -2.072750000   0.000000000
  C   -6.150000000  -3.461750000   0.000000000
  C   -4.921000000  -4.107750000   0.000000000
  C   -3.740000000  -3.374750000   0.000000000
  H   -5.060000000  -0.250750000   0.000000000
  H   -2.787000000  -3.881750000   0.000000000
  H   -7.148000000  -1.560750000   0.000000000
  H   -4.876000000  -5.188750000   0.000000000
  H   -7.066000000  -4.034750000   0.000000000
