22
charge=0 charge_a=0 charge_b=0 selection_a=1-10 selection_b=11-22 scaling=0.8 benchmark_Eint=3.557 benchmark_unit=kcal/mol group=I
  H    0.681000000   1.864000000  -1.025000000
  H   -0.806000000   2.311000000  -1.890000000
  H   -0.019000000   3.496000000  -0.867000000
  C   -0.241000000   2.433000000  -0.963000000
  H   -2.093000000   3.767000000   0.751000000
  H   -2.962000000   2.792000000  -0.417000000
  H   -2.900000000   2.275000000   1.288000000
  C   -2.344000000   2.739000000   0.480000000
  C   -1.078000000   1.964000000   0.202000000
  O   -0.758000000   1.015000000   0.883000000
  I    1.274000000  -0.372200000   0.621400000
  C    3.027000000  -1.520200000   0.357400000
  C    3.005000000  -2.630200000  -0.479600000
  C    4.194000000  -1.161200000   1.021400000
  C    4.162000000  -3.382200000  -0.649600000
  C    5.345000000  -1.920200000   0.844400000
  C    5.333000000  -3.031200000   0.010400000
  H    2.097000000  -2.907200000  -0.993600000
  H    4.207000000  -0.299200000   1.672400000
  H    4.143000000  -4.245200000  -1.300600000
  H    6.251000000  -1.640200000   1.362400000
  H    6.229000000  -3.618200000  -0.124600000
