12
charge=0 charge_a=0 charge_b=0 selection_a=1-10 selection_b=11-12 scaling=1.1 benchmark_Eint=-8.439 benchmark_unit=kcal/mol group=I
  C   -3.162000000  -0.180000000  -0.005000000
  C   -2.409000000  -1.467000000  -0.002000000
  C   -3.245000000  -2.709000000  -0.004000000
  S   -0.781000000  -1.569000000   0.002000000
  H   -3.814000000  -0.144000000  -0.881000000
  H   -3.819000000  -0.143000000   0.868000000
  H   -2.511000000   0.687000000  -0.004000000
  H   -2.642000000  -3.611000000  -0.001000000
  H   -3.897000000  -2.709000000  -0.881000000
  H   -3.901000000  -2.708000000   0.870000000
  I    0.539000000   1.381200000   0.003100000
  I    1.740000000   3.895200000   0.004100000
