15
charge=0 charge_a=0 charge_b=0 selection_a=1-10 selection_b=11-15 scaling=0.9 benchmark_Eint=-1.446 benchmark_unit=kcal/mol group=I
  C   -3.007000000  -0.177000000  -0.016000000
  C   -2.365000000  -1.530000000   0.004000000
  C   -3.320000000  -2.685000000   0.000000000
  S   -0.753000000  -1.743000000   0.028000000
  H   -3.643000000  -0.085000000  -0.901000000
  H   -3.668000000  -0.070000000   0.848000000
  H   -2.276000000   0.623000000  -0.012000000
  H   -2.802000000  -3.638000000   0.015000000
  H   -3.961000000  -2.633000000  -0.884000000
  H   -3.985000000  -2.619000000   0.865000000
  I    0.616800000   1.121700000   0.015400000
  C    1.563800000   3.065700000   0.006400000
  H    2.631800000   2.910700000  -0.082600000
  H    1.176800000   3.617700000  -0.840600000
  H    1.317800000   3.557700000   0.939400000
