14
charge=0 charge_a=0 charge_b=0 selection_a=1-9 selection_b=10-14 scaling=1.05 benchmark_Eint=-3.665 benchmark_unit=kcal/mol group=I
  S   -0.004000000  -0.032000000  -1.711000000
  C   -1.812000000   0.014000000  -1.650000000
  C    0.343000000   1.743000000  -1.659000000
  H   -2.152000000   0.494000000  -0.734000000
  H   -2.160000000  -1.016000000  -1.659000000
  H   -2.216000000   0.534000000  -2.517000000
  H   -0.047000000   2.182000000  -0.742000000
  H   -0.081000000   2.247000000  -2.526000000
  H    1.424000000   1.859000000  -1.673000000
  I    0.113600000  -0.162200000   1.890500000
  C   -0.042400000   0.041800000   4.038500000
  H   -1.094400000   0.029800000   4.295500000
  H    0.479600000  -0.793200000   4.486500000
  H    0.416600000   0.982800000   4.314500000
