15
charge=0 charge_a=0 charge_b=0 selection_a=1-10 selection_b=11-15 scaling=0.85 benchmark_Eint=0.874 benchmark_unit=kcal/mol group=I
  C   -3.007000000  -0.177000000  -0.016000000
  C   -2.365000000  -1.530000000   0.004000000
  C   -3.320000000  -2.685000000   0.000000000
  S   -0.753000000  -1.743000000   0.028000000
  H   -3.643000000  -0.085000000  -0.901000000
  H   -3.668000000  -0.070000000   0.848000000
  H   -2.276000000   0.623000000  -0.012000000
  H   -2.802000000  -3.638000000   0.015000000
  H   -3.961000000  -2.633000000  -0.884000000
  H   -3.985000000  -2.619000000   0.865000000
  I    0.540700000   0.962550000   0.016100000
  C    1.487700000   2.906550000   0.007100000
  H    2.555700000   2.751550000  -0.081900000
  H    1.100700000   3.458550000  -0.839900000
  H    1.241700000   3.398550000   0.940100000
