14
charge=0 charge_a=0 charge_b=0 selection_a=1-9 selection_b=10-14 scaling=0.8 benchmark_Eint=6.151 benchmark_unit=kcal/mol group=I
  S   -0.004000000  -0.032000000  -1.711000000
  C   -1.812000000   0.014000000  -1.650000000
  C    0.343000000   1.743000000  -1.659000000
  H   -2.152000000   0.494000000  -0.734000000
  H   -2.160000000  -1.016000000  -1.659000000
  H   -2.216000000   0.534000000  -2.517000000
  H   -0.047000000   2.182000000  -0.742000000
  H   -0.081000000   2.247000000  -2.526000000
  H    1.424000000   1.859000000  -1.673000000
  I    0.085600000  -0.131200000   1.033000000
  C   -0.070400000   0.072800000   3.181000000
  H   -1.122400000   0.060800000   3.438000000
  H    0.451600000  -0.762200000   3.629000000
  H    0.388600000   1.013800000   3.457000000
