14
charge=0 charge_a=0 charge_b=0 selection_a=1-9 selection_b=10-14 scaling=0.9 benchmark_Eint=-4.322 benchmark_unit=kcal/mol group=I
  S    0.002000000  -0.007000000  -1.546000000
  C   -1.806000000  -0.003000000  -1.629000000
  C    0.318000000   1.773000000  -1.630000000
  H   -2.227000000   0.561000000  -0.799000000
  H   -2.133000000  -1.037000000  -1.557000000
  H   -2.144000000   0.414000000  -2.575000000
  H   -0.162000000   2.287000000  -0.799000000
  H   -0.032000000   2.179000000  -2.576000000
  H    1.394000000   1.910000000  -1.558000000
  F   -1.267600000  -0.230900000   3.949600000
  F    0.804400000  -0.837900000   4.092600000
  I    0.079400000  -0.097900000   1.337600000
  F    0.299400000   1.261100000   3.937600000
  C   -0.029600000   0.034100000   3.513600000
