15
charge=0 charge_a=0 charge_b=0 selection_a=1-10 selection_b=11-15 scaling=0.95 benchmark_Eint=-4.882 benchmark_unit=kcal/mol group=I
  C   -3.032000000  -0.132000000  -0.008000000
  C   -2.339000000  -1.457000000  -0.001000000
  C   -3.246000000  -2.650000000  -0.003000000
  S   -0.719000000  -1.620000000   0.007000000
  H   -3.680000000  -0.061000000  -0.885000000
  H   -3.688000000  -0.057000000   0.863000000
  H   -2.337000000   0.700000000  -0.007000000
  H   -2.691000000  -3.582000000   0.002000000
  H   -3.896000000  -2.617000000  -0.881000000
  H   -3.904000000  -2.613000000   0.869000000
  F    1.312950000   3.828900000   1.116100000
  F    2.936950000   3.016900000  -0.059900000
  I    0.630950000   1.193900000   0.005100000
  F    1.212950000   3.877900000  -1.044900000
  C    1.605950000   3.143900000   0.004100000
