15
charge=0 charge_a=0 charge_b=0 selection_a=1-10 selection_b=11-15 scaling=2.0 benchmark_Eint=-0.352 benchmark_unit=kcal/mol group=I
  C   -3.032000000  -0.132000000  -0.008000000
  C   -2.339000000  -1.457000000  -0.001000000
  C   -3.246000000  -2.650000000  -0.003000000
  S   -0.719000000  -1.620000000   0.007000000
  H   -3.680000000  -0.061000000  -0.885000000
  H   -3.688000000  -0.057000000   0.863000000
  H   -2.337000000   0.700000000  -0.007000000
  H   -2.691000000  -3.582000000   0.002000000
  H   -3.896000000  -2.617000000  -0.881000000
  H   -3.904000000  -2.613000000   0.869000000
  F    2.805000000   6.939000000   1.114000000
  F    4.429000000   6.127000000  -0.062000000
  I    2.123000000   4.304000000   0.003000000
  F    2.705000000   6.988000000  -1.047000000
  C    3.098000000   6.254000000   0.002000000
