7
charge=0 charge_a=0 charge_b=0 selection_a=1-2 selection_b=3-7 scaling=0.95 benchmark_Eint=-0.671 benchmark_unit=kcal/mol group=I
  F   -0.019000000  -0.001000000  -1.360000000
  F   -1.365000000   0.001000000  -1.734000000
  F   -0.535750000  -1.107050000   4.508200000
  F    1.284250000   0.053950000   4.398200000
  I   -0.118750000  -0.000050000   1.847200000
  F   -0.628750000   1.052950000   4.514200000
  C    0.012250000  -0.000050000   4.007200000
