7
charge=0 charge_a=0 charge_b=0 selection_a=1-2 selection_b=3-7 scaling=1.05 benchmark_Eint=-0.701 benchmark_unit=kcal/mol group=I
  F   -0.019000000  -0.001000000  -1.360000000
  F   -1.365000000   0.001000000  -1.734000000
  F   -0.546250000  -1.106950000   4.845800000
  F    1.273750000   0.054050000   4.735800000
  I   -0.129250000   0.000050000   2.184800000
  F   -0.639250000   1.053050000   4.851800000
  C    0.001750000   0.000050000   4.344800000
