7
charge=0 charge_a=0 charge_b=0 selection_a=1-2 selection_b=3-7 scaling=1.5 benchmark_Eint=-0.128 benchmark_unit=kcal/mol group=I
  F   -0.019000000  -0.001000000  -1.360000000
  F   -1.365000000   0.001000000  -1.734000000
  F   -0.593500000  -1.106500000   6.365000000
  F    1.226500000   0.054500000   6.255000000
  I   -0.176500000   0.000500000   3.704000000
  F   -0.686500000   1.053500000   6.371000000
  C   -0.045500000   0.000500000   5.864000000
