7
charge=0 charge_a=0 charge_b=0 selection_a=1-2 selection_b=3-7 scaling=0.85 benchmark_Eint=0.485 benchmark_unit=kcal/mol group=I
  F   -0.019000000  -0.001000000  -1.360000000
  F   -1.365000000   0.001000000  -1.734000000
  F   -0.525250000  -1.107150000   4.170600000
  F    1.294750000   0.053850000   4.060600000
  I   -0.108250000  -0.000150000   1.509600000
  F   -0.618250000   1.052850000   4.176600000
  C    0.022750000  -0.000150000   3.669600000
