7
charge=0 charge_a=0 charge_b=0 selection_a=1-2 selection_b=3-7 scaling=1.5 benchmark_Eint=-0.317 benchmark_unit=kcal/mol group=I
 Cl   -0.006000000  -0.021000000  -1.651000000
 Cl   -2.014000000   0.028000000  -1.636000000
  F   -0.545500000  -1.106500000   6.353000000
  F    1.264500000   0.074500000   6.404000000
  I    0.100500000  -0.004500000   3.734000000
  F   -0.662500000   1.052500000   6.340000000
  C    0.033500000   0.004500000   5.897000000
