4
charge=0 charge_a=0 charge_b=0 selection_a=1-2 selection_b=3-4 scaling=1.5 benchmark_Eint=-0.397 benchmark_unit=kcal/mol group=I
 Cl   -0.021000000   0.000000000  -1.523000000
 Cl   -2.010000000   0.000000000  -1.802000000
  I    0.027000000   0.000000000   3.595000000
  I    0.027000000   0.000000000   6.291000000
