7
charge=0 charge_a=0 charge_b=0 selection_a=1-2 selection_b=3-7 scaling=0.85 benchmark_Eint=0.508 benchmark_unit=kcal/mol group=I
 Cl   -0.006000000  -0.021000000  -1.651000000
 Cl   -2.014000000   0.028000000  -1.636000000
  F   -0.591650000  -1.113650000   4.019500000
  F    1.218350000   0.067350000   4.070500000
  I    0.054350000  -0.011650000   1.400500000
  F   -0.708650000   1.045350000   4.006500000
  C   -0.012650000  -0.002650000   3.563500000
