7
charge=0 charge_a=0 charge_b=0 selection_a=1-2 selection_b=3-7 scaling=1.05 benchmark_Eint=-1.308 benchmark_unit=kcal/mol group=I
 Cl    2.459000000  -0.958000000   0.041000000
 Cl    2.897000000   1.000000000  -0.051000000
  I   -1.334650000  -0.062350000   0.016850000
  C   -3.401650000   0.542650000  -0.000150000
  H   -3.623650000   0.971650000   0.967850000
  H   -3.520650000   1.272650000  -0.791150000
  H   -3.998650000  -0.340350000  -0.187150000
