7
charge=0 charge_a=0 charge_b=0 selection_a=1-2 selection_b=3-7 scaling=0.85 benchmark_Eint=0.570 benchmark_unit=kcal/mol group=I
 Cl    2.459000000  -0.958000000   0.041000000
 Cl    2.897000000   1.000000000  -0.051000000
  I   -0.612050000  -0.232950000   0.021450000
  C   -2.679050000   0.372050000   0.004450000
  H   -2.901050000   0.801050000   0.972450000
  H   -2.798050000   1.102050000  -0.786550000
  H   -3.276050000  -0.510950000  -0.182550000
