7
charge=0 charge_a=0 charge_b=0 selection_a=1-2 selection_b=3-7 scaling=0.95 benchmark_Eint=-1.729 benchmark_unit=kcal/mol group=I
 Cl   -0.006000000  -0.021000000  -1.651000000
 Cl   -2.014000000   0.028000000  -1.636000000
  F   -0.584550000  -1.112550000   4.378500000
  F    1.225450000   0.068450000   4.429500000
  I    0.061450000  -0.010550000   1.759500000
  F   -0.701550000   1.046450000   4.365500000
  C   -0.005550000  -0.001550000   3.922500000
