7
charge=0 charge_a=0 charge_b=0 selection_a=1-2 selection_b=3-7 scaling=1.1 benchmark_Eint=-1.124 benchmark_unit=kcal/mol group=I
 Cl    2.459000000  -0.958000000   0.041000000
 Cl    2.897000000   1.000000000  -0.051000000
  I   -1.515300000  -0.019700000   0.015700000
  C   -3.582300000   0.585300000  -0.001300000
  H   -3.804300000   1.014300000   0.966700000
  H   -3.701300000   1.315300000  -0.792300000
  H   -4.179300000  -0.297700000  -0.188300000
