7
charge=0 charge_a=0 charge_b=0 selection_a=1-2 selection_b=3-7 scaling=1.25 benchmark_Eint=-1.033 benchmark_unit=kcal/mol group=I
 Br    0.009000000   0.025000000  -1.757000000
 Br   -2.299000000  -0.034000000  -1.653000000
  F   -0.607250000  -1.101250000   5.448000000
  F    1.234750000   0.026750000   5.521000000
  I    0.082750000   0.008750000   2.843000000
  F   -0.663250000   1.059750000   5.457000000
  C    0.004750000  -0.002250000   5.006000000
