4
charge=0 charge_a=0 charge_b=0 selection_a=1-2 selection_b=3-4 scaling=1.5 benchmark_Eint=-0.521 benchmark_unit=kcal/mol group=I
 Br   -0.016000000   0.000000000  -1.586000000
 Br   -2.309000000   0.000000000  -1.879000000
  I    0.009500000   0.000000000   3.577000000
  I    0.018500000   0.000000000   6.280000000
