7
charge=0 charge_a=0 charge_b=0 selection_a=1-2 selection_b=3-7 scaling=0.9 benchmark_Eint=-3.074 benchmark_unit=kcal/mol group=I
 Br   -1.100000000   0.078000000   0.082000000
 Br   -0.174000000   0.317000000  -2.085000000
  I   -1.964900000  -0.194700000   2.812600000
  C    0.121100000  -0.030700000   3.314600000
  H    0.198100000  -0.097700000   4.391600000
  H    0.628100000  -0.848700000   2.819600000
  H    0.458100000   0.928300000   2.943600000
