7
charge=0 charge_a=0 charge_b=0 selection_a=1-2 selection_b=3-7 scaling=0.95 benchmark_Eint=-2.135 benchmark_unit=kcal/mol group=I
 Br    0.009000000   0.025000000  -1.757000000
 Br   -2.299000000  -0.034000000  -1.653000000
  F   -0.624950000  -1.097350000   4.344000000
  F    1.217050000   0.030650000   4.417000000
  I    0.065050000   0.012650000   1.739000000
  F   -0.680950000   1.063650000   4.353000000
  C   -0.012950000   0.001650000   3.902000000
