7
charge=0 charge_a=0 charge_b=0 selection_a=1-2 selection_b=3-7 scaling=0.8 benchmark_Eint=8.061 benchmark_unit=kcal/mol group=I
 Br   -1.100000000   0.078000000   0.082000000
 Br   -0.174000000   0.317000000  -2.085000000
  I   -1.868800000  -0.164400000   2.509200000
  C    0.217200000  -0.000400000   3.011200000
  H    0.294200000  -0.067400000   4.088200000
  H    0.724200000  -0.818400000   2.516200000
  H    0.554200000   0.958600000   2.640200000
