7
charge=0 charge_a=0 charge_b=0 selection_a=1-2 selection_b=3-7 scaling=1.5 benchmark_Eint=-0.391 benchmark_unit=kcal/mol group=I
 Br    0.009000000   0.025000000  -1.757000000
 Br   -2.299000000  -0.034000000  -1.653000000
  F   -0.592500000  -1.104500000   6.368000000
  F    1.249500000   0.023500000   6.441000000
  I    0.097500000   0.005500000   3.763000000
  F   -0.648500000   1.056500000   6.377000000
  C    0.019500000  -0.005500000   5.926000000
