7
charge=0 charge_a=0 charge_b=0 selection_a=1-2 selection_b=3-7 scaling=0.85 benchmark_Eint=0.607 benchmark_unit=kcal/mol group=I
 Br   -1.100000000   0.078000000   0.082000000
 Br   -0.174000000   0.317000000  -2.085000000
  I   -1.916850000  -0.179550000   2.660900000
  C    0.169150000  -0.015550000   3.162900000
  H    0.246150000  -0.082550000   4.239900000
  H    0.676150000  -0.833550000   2.667900000
  H    0.506150000   0.943450000   2.791900000
