7
charge=0 charge_a=0 charge_b=0 selection_a=1-2 selection_b=3-7 scaling=0.8 benchmark_Eint=4.139 benchmark_unit=kcal/mol group=I
 Br    0.009000000   0.025000000  -1.757000000
 Br   -2.299000000  -0.034000000  -1.653000000
  F   -0.633800000  -1.095400000   3.792000000
  F    1.208200000   0.032600000   3.865000000
  I    0.056200000   0.014600000   1.187000000
  F   -0.689800000   1.065600000   3.801000000
  C   -0.021800000   0.003600000   3.350000000
