7
charge=0 charge_a=0 charge_b=0 selection_a=1-2 selection_b=3-7 scaling=2.0 benchmark_Eint=-0.089 benchmark_unit=kcal/mol group=I
 Br    0.009000000   0.025000000  -1.757000000
 Br   -2.299000000  -0.034000000  -1.653000000
  F   -0.563000000  -1.111000000   8.208000000
  F    1.279000000   0.017000000   8.281000000
  I    0.127000000  -0.001000000   5.603000000
  F   -0.619000000   1.050000000   8.217000000
  C    0.049000000  -0.012000000   7.766000000
