4
charge=0 charge_a=0 charge_b=0 selection_a=1-2 selection_b=3-4 scaling=1.25 benchmark_Eint=-1.921 benchmark_unit=kcal/mol group=I
  I   -0.014000000   0.000000000  -1.676000000
  I   -2.685000000   0.000000000  -1.956000000
  I    0.016000000   0.000000000   2.671500000
  I    0.005000000   0.000000000   5.389500000
