4
charge=0 charge_a=0 charge_b=0 selection_a=1-2 selection_b=3-4 scaling=1.05 benchmark_Eint=-3.467 benchmark_unit=kcal/mol group=I
  I   -0.014000000   0.000000000  -1.676000000
  I   -2.685000000   0.000000000  -1.956000000
  I    0.011200000   0.000000000   1.975900000
  I    0.000200000   0.000000000   4.693900000
