7
charge=0 charge_a=0 charge_b=0 selection_a=1-5 selection_b=6-7 scaling=1.05 benchmark_Eint=-1.849 benchmark_unit=kcal/mol group=I
  C    0.274000000   0.109000000   4.692000000
  I   -0.401000000   0.071000000   2.645000000
  H   -0.212000000  -0.706000000   5.212000000
  H    1.349000000  -0.015000000   4.682000000
  H   -0.008000000   1.067000000   5.110000000
  I    1.385700000  -0.019700000  -1.664200000
  I   -1.289300000  -0.006700000  -1.412200000
