4
charge=0 charge_a=0 charge_b=0 selection_a=1-2 selection_b=3-4 scaling=0.9 benchmark_Eint=-1.515 benchmark_unit=kcal/mol group=I
  I   -0.014000000   0.000000000  -1.676000000
  I   -2.685000000   0.000000000  -1.956000000
  I    0.007600000   0.000000000   1.454200000
  I   -0.003400000   0.000000000   4.172200000
