7
charge=0 charge_a=0 charge_b=0 selection_a=1-2 selection_b=3-7 scaling=1.0 benchmark_Eint=-2.681 benchmark_unit=kcal/mol group=I
  I    0.030000000   0.026000000  -1.901000000
  I   -2.642000000  -0.035000000  -1.630000000
  F   -0.652000000  -1.096000000   4.485000000
  F    1.192000000   0.026000000   4.604000000
  I    0.107000000   0.012000000   1.895000000
  F   -0.700000000   1.066000000   4.494000000
  C   -0.025000000   0.001000000   4.058000000
