7
charge=0 charge_a=0 charge_b=0 selection_a=1-2 selection_b=3-7 scaling=0.95 benchmark_Eint=-2.505 benchmark_unit=kcal/mol group=I
  I    0.030000000   0.026000000  -1.901000000
  I   -2.642000000  -0.035000000  -1.630000000
  F   -0.655850000  -1.095300000   4.295200000
  F    1.188150000   0.026700000   4.414200000
  I    0.103150000   0.012700000   1.705200000
  F   -0.703850000   1.066700000   4.304200000
  C   -0.028850000   0.001700000   3.868200000
