7
charge=0 charge_a=0 charge_b=0 selection_a=1-2 selection_b=3-7 scaling=0.9 benchmark_Eint=-1.616 benchmark_unit=kcal/mol group=I
  I    0.030000000   0.026000000  -1.901000000
  I   -2.642000000  -0.035000000  -1.630000000
  F   -0.659700000  -1.094600000   4.105400000
  F    1.184300000   0.027400000   4.224400000
  I    0.099300000   0.013400000   1.515400000
  F   -0.707700000   1.067400000   4.114400000
  C   -0.032700000   0.002400000   3.678400000
