20
charge=0 charge_a=0 charge_b=0 selection_a=1-10 selection_b=11-20 scaling=1.5 benchmark_Eint=-1.077 benchmark_unit=kcal/mol group=S
  N   -1.468000000   0.698000000   0.322000000
  N   -3.906000000   1.952000000   0.847000000
  C   -2.592000000   0.004000000   0.483000000
  C   -3.806000000   0.629000000   0.745000000
  C   -1.567000000   2.020000000   0.424000000
  C   -2.781000000   2.644000000   0.686000000
  H   -2.527000000  -1.074000000   0.402000000
  H   -4.713000000   0.051000000   0.874000000
  H   -0.658000000   2.595000000   0.294000000
  H   -2.846000000   3.722000000   0.766000000
  S    3.191000000   0.345500000  -0.552500000
  O    3.713000000  -3.495500000  -0.892500000
  C    2.612000000  -1.376500000  -0.556500000
  C    3.815000000  -2.288500000  -0.833500000
  C    5.025000000  -1.492500000  -1.004500000
  C    4.817000000  -0.169500000  -0.882500000
  H    1.854000000  -1.505500000  -1.323500000
  H    2.170000000  -1.615500000   0.407500000
  H    5.980000000  -1.949500000  -1.207500000
  H    5.578000000   0.591500000  -0.972500000
