22
charge=0 charge_a=0 charge_b=0 selection_a=1-13 selection_b=14-22 scaling=1.5 benchmark_Eint=-2.578 benchmark_unit=kcal/mol group=S
  N    0.070000000   0.124000000  -1.307000000
  C   -0.512000000  -1.178000000  -1.594000000
  C   -0.775000000   1.203000000  -1.795000000
  C    1.429000000   0.223000000  -1.815000000
  H   -1.503000000  -1.243000000  -1.147000000
  H    0.110000000  -1.960000000  -1.162000000
  H   -0.605000000  -1.364000000  -2.674000000
  H   -1.758000000   1.135000000  -1.333000000
  H   -0.900000000   1.175000000  -2.887000000
  H   -0.339000000   2.165000000  -1.530000000
  H    1.856000000   1.189000000  -1.550000000
  H    1.475000000   0.119000000  -2.909000000
  H    2.044000000  -0.556000000  -1.368000000
  S   -0.056000000  -0.243500000   2.771500000
  O    0.521000000   0.979500000   6.335500000
  N   -0.050000000  -0.264500000   4.480500000
  C    0.455000000   0.856500000   5.124500000
  C    0.861000000   1.792500000   4.073500000
  C    0.645000000   1.331500000   2.829500000
  H    1.290000000   2.750500000   4.314500000
  H   -0.396000000  -1.053500000   4.999500000
  H    0.856000000   1.825500000   1.899500000
