14
charge=0 charge_a=0 charge_b=0 selection_a=1-10 selection_b=11-14 scaling=0.95 benchmark_Eint=-3.473 benchmark_unit=kcal/mol group=S
  N   -1.488000000   0.131000000   0.025000000
  N   -4.275000000  -0.013000000   0.055000000
  C   -2.126000000  -1.029000000   0.159000000
  C   -3.515000000  -1.098000000   0.174000000
  C   -2.246000000   1.218000000  -0.094000000
  C   -3.634000000   1.146000000  -0.079000000
  H   -1.516000000  -1.918000000   0.256000000
  H   -4.022000000  -2.049000000   0.284000000
  H   -1.739000000   2.168000000  -0.205000000
  H   -4.238000000   2.039000000  -0.178000000
  F    0.837700000  -1.704100000   0.219400000
  F    4.099700000  -0.639100000  -1.030600000
  S    1.443700000  -0.171100000   0.036400000
  S    3.315700000  -0.257100000   0.375400000
