19
charge=0 charge_a=0 charge_b=0 selection_a=1-9 selection_b=10-19 scaling=1.1 benchmark_Eint=-5.239 benchmark_unit=kcal/mol group=S
  C   -1.462000000   0.641000000  -0.616000000
  S   -0.387000000   0.783000000   0.727000000
  N   -0.966000000   2.359000000   0.988000000
  C   -1.947000000   2.822000000   0.116000000
  C   -2.206000000   1.738000000  -0.833000000
  O   -2.451000000   3.928000000   0.186000000
  H   -2.934000000   1.847000000  -1.619000000
  H   -0.618000000   2.934000000   1.736000000
  H   -1.456000000  -0.286000000  -1.161000000
  N    0.412700000  -2.129800000  -0.065000000
  C   -0.072300000  -3.151800000   0.636000000
  C    0.560700000  -4.388800000   0.647000000
  N    1.678700000  -4.610800000  -0.039000000
  C    2.161700000  -3.585800000  -0.736000000
  C    1.531700000  -2.346800000  -0.750000000
  H   -0.980300000  -2.978800000   1.200000000
  H    0.156700000  -5.213800000   1.220000000
  H    1.934700000  -1.517800000  -1.316000000
  H    3.072700000  -3.752800000  -1.297000000
