9
charge=0 charge_a=0 charge_b=0 selection_a=1-6 selection_b=7-9 scaling=2.0 benchmark_Eint=-0.227 benchmark_unit=kcal/mol group=S
  N   -1.508000000   0.000000000   0.000000000
  C   -4.109000000   0.000000000   0.000000000
  C   -2.656000000   0.000000000   0.000000000
  H   -4.484000000  -0.829000000   0.597000000
  H   -4.483000000  -0.103000000  -1.017000000
  H   -4.484000000   0.932000000   0.420000000
  S    4.930000000   0.000000000   0.000000000
  O    7.649000000   0.000000000   0.000000000
  C    6.492000000   0.000000000   0.000000000
