9
charge=0 charge_a=0 charge_b=0 selection_a=1-6 selection_b=7-9 scaling=0.85 benchmark_Eint=-1.801 benchmark_unit=kcal/mol group=S
  N   -1.362000000  -0.147000000  -0.389000000
  C   -3.925000000   0.064000000  -0.011000000
  C   -2.493000000  -0.054000000  -0.223000000
  H   -4.344000000  -0.902000000   0.264000000
  H   -4.410000000   0.413000000  -0.922000000
  H   -4.125000000   0.775000000   0.788000000
  S    0.978050000   0.044250000  -0.309100000
  F    2.589050000   0.199250000  -0.227100000
  F    0.627050000   1.087250000   0.865900000
