22
charge=0 charge_a=0 charge_b=0 selection_a=1-13 selection_b=14-22 scaling=0.9 benchmark_Eint=-6.739 benchmark_unit=kcal/mol group=S
  N    0.070000000   0.124000000  -1.307000000
  C   -0.512000000  -1.178000000  -1.594000000
  C   -0.775000000   1.203000000  -1.795000000
  C    1.429000000   0.223000000  -1.815000000
  H   -1.503000000  -1.243000000  -1.147000000
  H    0.110000000  -1.960000000  -1.162000000
  H   -0.605000000  -1.364000000  -2.674000000
  H   -1.758000000   1.135000000  -1.333000000
  H   -0.900000000   1.175000000  -2.887000000
  H   -0.339000000   2.165000000  -1.530000000
  H    1.856000000   1.189000000  -1.550000000
  H    1.475000000   0.119000000  -2.909000000
  H    2.044000000  -0.556000000  -1.368000000
  S   -0.005600000  -0.096500000   1.140100000
  O    0.571400000   1.126500000   4.704100000
  N    0.000400000  -0.117500000   2.849100000
  C    0.505400000   1.003500000   3.493100000
  C    0.911400000   1.939500000   2.442100000
  C    0.695400000   1.478500000   1.198100000
  H    1.340400000   2.897500000   2.683100000
  H   -0.345600000  -0.906500000   3.368100000
  H    0.906400000   1.972500000   0.268100000
