21
charge=0 charge_a=0 charge_b=0 selection_a=1-8 selection_b=9-21 scaling=0.9 benchmark_Eint=-4.076 benchmark_unit=kcal/mol group=S
  C    0.204000000   1.163000000   3.477000000
  N   -0.860000000   0.673000000   2.879000000
  S   -0.550000000   0.490000000   1.264000000
  C    1.048000000   1.078000000   1.354000000
  C    1.329000000   1.414000000   2.650000000
  H    2.270000000   1.813000000   2.994000000
  H    1.680000000   1.146000000   0.488000000
  H    0.169000000   1.345000000   4.543000000
  N    0.017000000   0.214600000  -1.357700000
  C    1.293000000   0.559600000  -1.956700000
  C   -0.268000000  -1.204400000  -1.479700000
  C   -1.063000000   1.027600000  -1.886700000
  H   -1.196000000  -1.438400000  -0.961700000
  H    0.532000000  -1.782400000  -1.020700000
  H   -0.368000000  -1.525400000  -2.529700000
  H   -1.990000000   0.790600000  -1.367700000
  H   -1.221000000   0.869600000  -2.965700000
  H   -0.845000000   2.082600000  -1.724700000
  H    1.504000000   1.616600000  -1.795700000
  H    1.318000000   0.370600000  -3.041700000
  H    2.089000000  -0.025400000  -1.496700000
