20
charge=0 charge_a=0 charge_b=0 selection_a=1-13 selection_b=14-20 scaling=1.0 benchmark_Eint=-5.690 benchmark_unit=kcal/mol group=S
  C   -0.323000000  -1.402000000  -1.641000000
  N   -0.074000000  -0.045000000  -1.186000000
  C    1.276000000   0.385000000  -1.510000000
  C   -1.067000000   0.885000000  -1.697000000
  H   -1.324000000  -1.718000000  -1.345000000
  H    0.398000000  -2.081000000  -1.189000000
  H   -0.249000000  -1.502000000  -2.736000000
  H   -2.065000000   0.565000000  -1.399000000
  H   -1.048000000   0.962000000  -2.796000000
  H   -0.888000000   1.876000000  -1.282000000
  H    1.451000000   1.381000000  -1.106000000
  H    1.457000000   0.415000000  -2.595000000
  H    1.997000000  -0.295000000  -1.060000000
  S    0.245000000   0.649000000   1.716000000
  C    0.427000000   1.157000000   3.324000000
  N    0.590000000   1.524000000   4.408000000
  C   -1.332000000  -0.249000000   1.902000000
  H   -1.538000000  -0.642000000   0.913000000
  H   -2.118000000   0.431000000   2.212000000
  H   -1.220000000  -1.059000000   2.615000000
