20
charge=0 charge_a=0 charge_b=0 selection_a=1-10 selection_b=11-20 scaling=1.05 benchmark_Eint=-3.466 benchmark_unit=kcal/mol group=S
  N   -1.468000000   0.698000000   0.322000000
  N   -3.906000000   1.952000000   0.847000000
  C   -2.592000000   0.004000000   0.483000000
  C   -3.806000000   0.629000000   0.745000000
  C   -1.567000000   2.020000000   0.424000000
  C   -2.781000000   2.644000000   0.686000000
  H   -2.527000000  -1.074000000   0.402000000
  H   -4.713000000   0.051000000   0.874000000
  H   -0.658000000   2.595000000   0.294000000
  H   -2.846000000   3.722000000   0.766000000
  S    1.793300000   0.451250000  -0.290150000
  O    2.315300000  -3.389750000  -0.630150000
  C    1.214300000  -1.270750000  -0.294150000
  C    2.417300000  -2.182750000  -0.571150000
  C    3.627300000  -1.386750000  -0.742150000
  C    3.419300000  -0.063750000  -0.620150000
  H    0.456300000  -1.399750000  -1.061150000
  H    0.772300000  -1.509750000   0.669850000
  H    4.582300000  -1.843750000  -0.945150000
  H    4.180300000   0.697250000  -0.710150000
