17
charge=0 charge_a=0 charge_b=0 selection_a=1-10 selection_b=11-17 scaling=0.8 benchmark_Eint=1.436 benchmark_unit=kcal/mol group=S
  N    1.033000000   0.322000000  -0.149000000
  N    3.334000000  -0.638000000  -1.404000000
  C    1.362000000  -0.968000000  -0.116000000
  C    2.509000000  -1.444000000  -0.740000000
  C    1.857000000   1.129000000  -0.814000000
  C    3.002000000   0.650000000  -1.439000000
  H    0.694000000  -1.635000000   0.414000000
  H    2.765000000  -2.495000000  -0.704000000
  H    1.600000000   2.180000000  -0.852000000
  H    3.662000000   1.318000000  -1.978000000
  H    0.052400000   1.483200000   1.475800000
  S   -1.424600000   0.129200000   0.267800000
  N   -4.151600000  -0.389800000   0.895800000
  C   -0.998600000   1.263200000   1.632800000
  C   -3.043600000  -0.164800000   0.658800000
  H   -1.144600000   0.770200000   2.587800000
  H   -1.595600000   2.167200000   1.567800000
