14
charge=0 charge_a=0 charge_b=0 selection_a=1-10 selection_b=11-14 scaling=0.85 benchmark_Eint=-0.188 benchmark_unit=kcal/mol group=S
  N   -1.488000000   0.131000000   0.025000000
  N   -4.275000000  -0.013000000   0.055000000
  C   -2.126000000  -1.029000000   0.159000000
  C   -3.515000000  -1.098000000   0.174000000
  C   -2.246000000   1.218000000  -0.094000000
  C   -3.634000000   1.146000000  -0.079000000
  H   -1.516000000  -1.918000000   0.256000000
  H   -4.022000000  -2.049000000   0.284000000
  H   -1.739000000   2.168000000  -0.205000000
  H   -4.238000000   2.039000000  -0.178000000
  F    0.529100000  -1.672300000   0.218200000
  F    3.791100000  -0.607300000  -1.031800000
  S    1.135100000  -0.139300000   0.035200000
  S    3.007100000  -0.225300000   0.374200000
