19
charge=0 charge_a=0 charge_b=0 selection_a=1-9 selection_b=10-19 scaling=1.05 benchmark_Eint=-5.589 benchmark_unit=kcal/mol group=S
  C   -1.462000000   0.641000000  -0.616000000
  S   -0.387000000   0.783000000   0.727000000
  N   -0.966000000   2.359000000   0.988000000
  C   -1.947000000   2.822000000   0.116000000
  C   -2.206000000   1.738000000  -0.833000000
  O   -2.451000000   3.928000000   0.186000000
  H   -2.934000000   1.847000000  -1.619000000
  H   -0.618000000   2.934000000   1.736000000
  H   -1.456000000  -0.286000000  -1.161000000
  N    0.376350000  -1.997400000  -0.029000000
  C   -0.108650000  -3.019400000   0.672000000
  C    0.524350000  -4.256400000   0.683000000
  N    1.642350000  -4.478400000  -0.003000000
  C    2.125350000  -3.453400000  -0.700000000
  C    1.495350000  -2.214400000  -0.714000000
  H   -1.016650000  -2.846400000   1.236000000
  H    0.120350000  -5.081400000   1.256000000
  H    1.898350000  -1.385400000  -1.280000000
  H    3.036350000  -3.620400000  -1.261000000
