19
charge=0 charge_a=0 charge_b=0 selection_a=1-9 selection_b=10-19 scaling=2.0 benchmark_Eint=-0.641 benchmark_unit=kcal/mol group=S
  C   -1.462000000   0.641000000  -0.616000000
  S   -0.387000000   0.783000000   0.727000000
  N   -0.966000000   2.359000000   0.988000000
  C   -1.947000000   2.822000000   0.116000000
  C   -2.206000000   1.738000000  -0.833000000
  O   -2.451000000   3.928000000   0.186000000
  H   -2.934000000   1.847000000  -1.619000000
  H   -0.618000000   2.934000000   1.736000000
  H   -1.456000000  -0.286000000  -1.161000000
  N    1.067000000  -4.513000000  -0.713000000
  C    0.582000000  -5.535000000  -0.012000000
  C    1.215000000  -6.772000000  -0.001000000
  N    2.333000000  -6.994000000  -0.687000000
  C    2.816000000  -5.969000000  -1.384000000
  C    2.186000000  -4.730000000  -1.398000000
  H   -0.326000000  -5.362000000   0.552000000
  H    0.811000000  -7.597000000   0.572000000
  H    2.589000000  -3.901000000  -1.964000000
  H    3.727000000  -6.136000000  -1.945000000
