21
charge=0 charge_a=0 charge_b=0 selection_a=1-8 selection_b=9-21 scaling=0.8 benchmark_Eint=1.948 benchmark_unit=kcal/mol group=S
  C    0.204000000   1.163000000   3.477000000
  N   -0.860000000   0.673000000   2.879000000
  S   -0.550000000   0.490000000   1.264000000
  C    1.048000000   1.078000000   1.354000000
  C    1.329000000   1.414000000   2.650000000
  H    2.270000000   1.813000000   2.994000000
  H    1.680000000   1.146000000   0.488000000
  H    0.169000000   1.345000000   4.543000000
  N   -0.046000000   0.245200000  -1.066400000
  C    1.230000000   0.590200000  -1.665400000
  C   -0.331000000  -1.173800000  -1.188400000
  C   -1.126000000   1.058200000  -1.595400000
  H   -1.259000000  -1.407800000  -0.670400000
  H    0.469000000  -1.751800000  -0.729400000
  H   -0.431000000  -1.494800000  -2.238400000
  H   -2.053000000   0.821200000  -1.076400000
  H   -1.284000000   0.900200000  -2.674400000
  H   -0.908000000   2.113200000  -1.433400000
  H    1.441000000   1.647200000  -1.504400000
  H    1.255000000   0.401200000  -2.750400000
  H    2.026000000   0.005200000  -1.205400000
