17
charge=0 charge_a=0 charge_b=0 selection_a=1-13 selection_b=14-17 scaling=0.95 benchmark_Eint=-4.612 benchmark_unit=kcal/mol group=S
  N    0.029000000   0.002000000  -1.474000000
  C   -0.618000000  -1.250000000  -1.815000000
  C   -0.721000000   1.153000000  -1.945000000
  C    1.413000000   0.040000000  -1.911000000
  H   -1.629000000  -1.266000000  -1.409000000
  H   -0.063000000  -2.082000000  -1.383000000
  H   -0.684000000  -1.412000000  -2.903000000
  H   -1.732000000   1.122000000  -1.542000000
  H   -0.790000000   1.190000000  -3.044000000
  H   -0.242000000   2.067000000  -1.599000000
  H    1.880000000   0.960000000  -1.565000000
  H    1.512000000  -0.010000000  -3.007000000
  H    1.957000000  -0.801000000  -1.482000000
  F    0.816350000   1.542700000   0.827850000
  F   -0.692650000   0.700700000   4.027850000
  S    0.098350000   0.121700000   1.283850000
  S    0.466350000  -0.094300000   3.147850000
