14
charge=0 charge_a=0 charge_b=0 selection_a=1-10 selection_b=11-14 scaling=1.05 benchmark_Eint=-3.536 benchmark_unit=kcal/mol group=S
  N   -1.488000000   0.131000000   0.025000000
  N   -4.275000000  -0.013000000   0.055000000
  C   -2.126000000  -1.029000000   0.159000000
  C   -3.515000000  -1.098000000   0.174000000
  C   -2.246000000   1.218000000  -0.094000000
  C   -3.634000000   1.146000000  -0.079000000
  H   -1.516000000  -1.918000000   0.256000000
  H   -4.022000000  -2.049000000   0.284000000
  H   -1.739000000   2.168000000  -0.205000000
  H   -4.238000000   2.039000000  -0.178000000
  F    1.146300000  -1.735900000   0.220600000
  F    4.408300000  -0.670900000  -1.029400000
  S    1.752300000  -0.202900000   0.037600000
  S    3.624300000  -0.288900000   0.376600000
