21
charge=0 charge_a=0 charge_b=0 selection_a=1-8 selection_b=9-21 scaling=2.0 benchmark_Eint=-0.439 benchmark_unit=kcal/mol group=S
  C    0.204000000   1.163000000   3.477000000
  N   -0.860000000   0.673000000   2.879000000
  S   -0.550000000   0.490000000   1.264000000
  C    1.048000000   1.078000000   1.354000000
  C    1.329000000   1.414000000   2.650000000
  H    2.270000000   1.813000000   2.994000000
  H    1.680000000   1.146000000   0.488000000
  H    0.169000000   1.345000000   4.543000000
  N    0.710000000  -0.122000000  -4.562000000
  C    1.986000000   0.223000000  -5.161000000
  C    0.425000000  -1.541000000  -4.684000000
  C   -0.370000000   0.691000000  -5.091000000
  H   -0.503000000  -1.775000000  -4.166000000
  H    1.225000000  -2.119000000  -4.225000000
  H    0.325000000  -1.862000000  -5.734000000
  H   -1.297000000   0.454000000  -4.572000000
  H   -0.528000000   0.533000000  -6.170000000
  H   -0.152000000   1.746000000  -4.929000000
  H    2.197000000   1.280000000  -5.000000000
  H    2.011000000   0.034000000  -6.246000000
  H    2.782000000  -0.362000000  -4.701000000
