17
charge=0 charge_a=0 charge_b=0 selection_a=1-10 selection_b=11-17 scaling=1.0 benchmark_Eint=-4.466 benchmark_unit=kcal/mol group=S
  N    1.033000000   0.322000000  -0.149000000
  N    3.334000000  -0.638000000  -1.404000000
  C    1.362000000  -0.968000000  -0.116000000
  C    2.509000000  -1.444000000  -0.740000000
  C    1.857000000   1.129000000  -0.814000000
  C    3.002000000   0.650000000  -1.439000000
  H    0.694000000  -1.635000000   0.414000000
  H    2.765000000  -2.495000000  -0.704000000
  H    1.600000000   2.180000000  -0.852000000
  H    3.662000000   1.318000000  -1.978000000
  H   -0.562000000   1.435000000   1.580000000
  S   -2.039000000   0.081000000   0.372000000
  N   -4.766000000  -0.438000000   1.000000000
  C   -1.613000000   1.215000000   1.737000000
  C   -3.658000000  -0.213000000   0.763000000
  H   -1.759000000   0.722000000   2.692000000
  H   -2.210000000   2.119000000   1.672000000
