13
charge=0 charge_a=0 charge_b=0 selection_a=1-10 selection_b=11-13 scaling=2.0 benchmark_Eint=-0.802 benchmark_unit=kcal/mol group=S
  N   -1.363000000  -0.038000000   0.000000000
  N   -4.135000000  -0.016000000   0.000000000
  C   -2.055000000  -1.171000000   0.000000000
  C   -3.446000000  -1.153000000   0.000000000
  C   -2.040000000   1.105000000   0.000000000
  C   -3.429000000   1.112000000   0.000000000
  H   -1.491000000  -2.093000000   0.000000000
  H   -4.010000000  -2.077000000   0.000000000
  H   -1.466000000   2.023000000   0.000000000
  H   -3.978000000   2.044000000   0.000000000
  S    3.481000000   0.260000000   0.000000000
  F    5.122000000   0.238000000   0.000000000
  F    3.349000000  -1.357000000   0.000000000
