14
charge=0 charge_a=0 charge_b=0 selection_a=1-10 selection_b=11-14 scaling=0.85 benchmark_Eint=-0.088 benchmark_unit=kcal/mol group=S
  C   -3.893000000   0.928000000   0.135000000
  N   -4.041000000  -0.379000000  -0.067000000
  C   -2.922000000  -1.090000000  -0.173000000
  C   -1.665000000  -0.502000000  -0.079000000
  N   -1.519000000   0.805000000   0.123000000
  C   -2.637000000   1.518000000   0.229000000
  H   -0.761000000  -1.091000000  -0.167000000
  H   -3.025000000  -2.156000000  -0.338000000
  H   -2.533000000   2.583000000   0.394000000
  H   -4.794000000   1.522000000   0.224000000
  S    1.205250000   0.845800000   0.136600000
  C    2.767250000   0.524800000   0.091600000
  F    3.319250000  -0.658200000  -0.089400000
  F    3.750250000   1.391800000   0.227600000
