23
charge=0 charge_a=0 charge_b=0 selection_a=1-10 selection_b=11-23 scaling=0.95 benchmark_Eint=-4.522 benchmark_unit=kcal/mol group=S
  C    2.321000000  -1.631000000   0.002000000
  S    0.617000000  -1.976000000  -0.033000000
  C    0.233000000  -0.201000000  -0.022000000
  C    1.553000000   0.582000000   0.008000000
  C    2.685000000  -0.336000000   0.020000000
  O    1.586000000   1.795000000   0.019000000
  H   -0.364000000   0.041000000   0.852000000
  H   -0.337000000   0.058000000  -0.910000000
  H    3.703000000   0.019000000   0.042000000
  H    3.004000000  -2.467000000   0.006000000
  N   -2.296650000  -2.012100000  -0.012100000
  C   -3.005650000  -1.233100000  -1.009100000
  C   -2.376650000  -3.436100000  -0.283100000
  C   -2.735650000  -1.696100000   1.334900000
  H   -1.779650000  -3.982100000   0.445900000
  H   -1.976650000  -3.645100000  -1.274100000
  H   -3.409650000  -3.817100000  -0.238100000
  H   -2.126650000  -2.239100000   2.056900000
  H   -3.791650000  -1.957100000   1.509900000
  H   -2.618650000  -0.629100000   1.522900000
  H   -2.878650000  -0.169100000  -0.809100000
  H   -4.086650000  -1.448100000  -1.028100000
  H   -2.601650000  -1.446100000  -1.999100000
