17
charge=0 charge_a=0 charge_b=0 selection_a=1-10 selection_b=11-17 scaling=1.1 benchmark_Eint=-4.023 benchmark_unit=kcal/mol group=S
  N    1.033000000   0.322000000  -0.149000000
  N    3.334000000  -0.638000000  -1.404000000
  C    1.362000000  -0.968000000  -0.116000000
  C    2.509000000  -1.444000000  -0.740000000
  C    1.857000000   1.129000000  -0.814000000
  C    3.002000000   0.650000000  -1.439000000
  H    0.694000000  -1.635000000   0.414000000
  H    2.765000000  -2.495000000  -0.704000000
  H    1.600000000   2.180000000  -0.852000000
  H    3.662000000   1.318000000  -1.978000000
  H   -0.869200000   1.410900000   1.632100000
  S   -2.346200000   0.056900000   0.424100000
  N   -5.073200000  -0.462100000   1.052100000
  C   -1.920200000   1.190900000   1.789100000
  C   -3.965200000  -0.237100000   0.815100000
  H   -2.066200000   0.697900000   2.744100000
  H   -2.517200000   2.094900000   1.724100000
