21
charge=0 charge_a=0 charge_b=0 selection_a=1-8 selection_b=9-21 scaling=1.5 benchmark_Eint=-1.535 benchmark_unit=kcal/mol group=S
  C    0.204000000   1.163000000   3.477000000
  N   -0.860000000   0.673000000   2.879000000
  S   -0.550000000   0.490000000   1.264000000
  C    1.048000000   1.078000000   1.354000000
  C    1.329000000   1.414000000   2.650000000
  H    2.270000000   1.813000000   2.994000000
  H    1.680000000   1.146000000   0.488000000
  H    0.169000000   1.345000000   4.543000000
  N    0.395000000   0.031000000  -3.105500000
  C    1.671000000   0.376000000  -3.704500000
  C    0.110000000  -1.388000000  -3.227500000
  C   -0.685000000   0.844000000  -3.634500000
  H   -0.818000000  -1.622000000  -2.709500000
  H    0.910000000  -1.966000000  -2.768500000
  H    0.010000000  -1.709000000  -4.277500000
  H   -1.612000000   0.607000000  -3.115500000
  H   -0.843000000   0.686000000  -4.713500000
  H   -0.467000000   1.899000000  -3.472500000
  H    1.882000000   1.433000000  -3.543500000
  H    1.696000000   0.187000000  -4.789500000
  H    2.467000000  -0.209000000  -3.244500000
