9
charge=0 charge_a=0 charge_b=0 selection_a=1-6 selection_b=7-9 scaling=0.8 benchmark_Eint=2.367 benchmark_unit=kcal/mol group=S
  N   -1.508000000   0.000000000   0.000000000
  C   -4.109000000   0.000000000   0.000000000
  C   -2.656000000   0.000000000   0.000000000
  H   -4.484000000  -0.829000000   0.597000000
  H   -4.483000000  -0.103000000  -1.017000000
  H   -4.484000000   0.932000000   0.420000000
  S    1.067200000   0.000000000   0.000000000
  O    3.786200000   0.000000000   0.000000000
  C    2.629200000   0.000000000   0.000000000
