20
charge=0 charge_a=0 charge_b=0 selection_a=1-13 selection_b=14-20 scaling=1.05 benchmark_Eint=-5.486 benchmark_unit=kcal/mol group=S
  C   -0.323000000  -1.402000000  -1.641000000
  N   -0.074000000  -0.045000000  -1.186000000
  C    1.276000000   0.385000000  -1.510000000
  C   -1.067000000   0.885000000  -1.697000000
  H   -1.324000000  -1.718000000  -1.345000000
  H    0.398000000  -2.081000000  -1.189000000
  H   -0.249000000  -1.502000000  -2.736000000
  H   -2.065000000   0.565000000  -1.399000000
  H   -1.048000000   0.962000000  -2.796000000
  H   -0.888000000   1.876000000  -1.282000000
  H    1.451000000   1.381000000  -1.106000000
  H    1.457000000   0.415000000  -2.595000000
  H    1.997000000  -0.295000000  -1.060000000
  S    0.260950000   0.683700000   1.861100000
  C    0.442950000   1.191700000   3.469100000
  N    0.605950000   1.558700000   4.553100000
  C   -1.316050000  -0.214300000   2.047100000
  H   -1.522050000  -0.607300000   1.058100000
  H   -2.102050000   0.465700000   2.357100000
  H   -1.204050000  -1.024300000   2.760100000
