15
charge=0 charge_a=0 charge_b=0 selection_a=1-6 selection_b=7-15 scaling=1.05 benchmark_Eint=-4.809 benchmark_unit=kcal/mol group=S
  N    2.540000000   0.408000000   0.050000000
  C    5.080000000  -0.144000000  -0.006000000
  C    3.661000000   0.165000000   0.025000000
  H    5.328000000  -0.840000000   0.794000000
  H    5.663000000   0.765000000   0.125000000
  H    5.342000000  -0.597000000  -0.961000000
  S   -0.415750000  -0.744900000  -0.134800000
  O   -4.145750000  -0.053900000  -0.068800000
  N   -2.079750000  -1.062900000  -0.191800000
  C   -2.930750000   0.030100000  -0.047800000
  C   -2.077750000   1.205100000   0.122200000
  C   -0.762750000   0.928100000   0.094200000
  H   -2.500750000   2.187100000   0.255200000
  H   -2.436750000  -1.993900000  -0.323800000
  H    0.074250000   1.596100000   0.194200000
