13
charge=0 charge_a=0 charge_b=0 selection_a=1-10 selection_b=11-13 scaling=0.8 benchmark_Eint=-0.910 benchmark_unit=kcal/mol group=S
  N   -1.363000000  -0.038000000   0.000000000
  N   -4.135000000  -0.016000000   0.000000000
  C   -2.055000000  -1.171000000   0.000000000
  C   -3.446000000  -1.153000000   0.000000000
  C   -2.040000000   1.105000000   0.000000000
  C   -3.429000000   1.112000000   0.000000000
  H   -1.491000000  -2.093000000   0.000000000
  H   -4.010000000  -2.077000000   0.000000000
  H   -1.466000000   2.023000000   0.000000000
  H   -3.978000000   2.044000000   0.000000000
  S    0.574600000   0.081200000   0.000000000
  F    2.215600000   0.059200000   0.000000000
  F    0.442600000  -1.535800000   0.000000000
