15
charge=0 charge_a=0 charge_b=0 selection_a=1-3 selection_b=4-15 scaling=0.85 benchmark_Eint=-6.903 benchmark_unit=kcal/mol group=S
  S    1.121000000   1.016000000   0.147000000
  F    2.122000000   1.628000000   1.300000000
  F    1.333000000  -0.528000000   0.611000000
  O   -0.125950000   0.209350000  -1.203650000
  N   -1.062950000  -0.422650000  -0.567650000
  C   -0.944950000  -1.753650000  -0.335650000
  C   -2.150950000   0.249350000  -0.115650000
  C   -1.926950000  -2.439650000   0.343350000
  C   -3.151950000  -0.405650000   0.566350000
  C   -3.052950000  -1.770650000   0.805350000
  H   -0.037950000  -2.189650000  -0.716650000
  H   -2.143950000   1.303350000  -0.336650000
  H   -1.797950000  -3.498650000   0.508350000
  H   -4.002950000   0.162350000   0.908350000
  H   -3.828950000  -2.296650000   1.338350000
