12
charge=0 charge_a=0 charge_b=0 selection_a=1-9 selection_b=10-12 scaling=1.05 benchmark_Eint=-3.663 benchmark_unit=kcal/mol group=S
  O    0.631000000   1.073000000   0.441000000
  C    1.105000000   3.156000000  -0.185000000
  C    2.325000000   2.489000000   0.162000000
  C    0.112000000   2.255000000  -0.002000000
  C    1.983000000   1.234000000   0.531000000
  H    0.990000000   4.169000000  -0.526000000
  H    3.320000000   2.897000000   0.137000000
  H   -0.953000000   2.282000000  -0.130000000
  H    2.536000000   0.376000000   0.864000000
  S   -0.696200000  -1.468000000   0.227850000
  F   -1.443200000  -2.894000000   0.115850000
  F   -0.207200000  -1.370000000  -1.300150000
