13
charge=0 charge_a=0 charge_b=0 selection_a=1-9 selection_b=10-13 scaling=0.8 benchmark_Eint=2.191 benchmark_unit=kcal/mol group=S
  O   -2.027000000  -0.561000000  -0.162000000
  C   -3.741000000   0.837000000   0.108000000
  C   -4.253000000  -0.470000000  -0.179000000
  C   -2.391000000   0.724000000   0.106000000
  C   -3.174000000  -1.274000000  -0.333000000
  H   -4.306000000   1.733000000   0.290000000
  H   -5.284000000  -0.764000000  -0.259000000
  H   -1.586000000   1.415000000   0.266000000
  H   -3.052000000  -2.317000000  -0.554000000
  F    2.431800000   1.410600000   0.329600000
  F    3.116800000  -0.552400000  -0.077400000
  S    0.525800000  -0.315400000  -0.068400000
  C    2.033800000   0.183600000   0.061600000
