14
charge=0 charge_a=0 charge_b=0 selection_a=1-10 selection_b=11-14 scaling=0.95 benchmark_Eint=-1.968 benchmark_unit=kcal/mol group=S
  O   -2.012000000  -0.923000000  -0.309000000
  C   -2.831000000  -0.057000000  -0.102000000
  C   -4.314000000  -0.348000000  -0.119000000
  C   -2.428000000   1.371000000   0.188000000
  H   -4.818000000   0.300000000  -0.838000000
  H   -4.489000000  -1.389000000  -0.373000000
  H   -4.747000000  -0.130000000   0.859000000
  H   -1.347000000   1.460000000   0.219000000
  H   -2.857000000   1.698000000   1.136000000
  H   -2.830000000   2.031000000  -0.584000000
  F    2.963150000   1.188150000   0.248200000
  F    3.524150000  -0.795850000  -0.237800000
  S    0.949150000  -0.412850000  -0.160800000
  C    2.486150000  -0.005850000  -0.049800000
