13
charge=0 charge_a=0 charge_b=0 selection_a=1-9 selection_b=10-13 scaling=1.5 benchmark_Eint=-0.372 benchmark_unit=kcal/mol group=S
  O   -2.027000000  -0.561000000  -0.162000000
  C   -3.741000000   0.837000000   0.108000000
  C   -4.253000000  -0.470000000  -0.179000000
  C   -2.391000000   0.724000000   0.106000000
  C   -3.174000000  -1.274000000  -0.333000000
  H   -4.306000000   1.733000000   0.290000000
  H   -5.284000000  -0.764000000  -0.259000000
  H   -1.586000000   1.415000000   0.266000000
  H   -3.052000000  -2.317000000  -0.554000000
  F    4.665500000   1.625500000   0.411500000
  F    5.350500000  -0.337500000   0.004500000
  S    2.759500000  -0.100500000   0.013500000
  C    4.267500000   0.398500000   0.143500000
