12
charge=0 charge_a=0 charge_b=0 selection_a=1-9 selection_b=10-12 scaling=0.8 benchmark_Eint=2.256 benchmark_unit=kcal/mol group=S
  O    0.631000000   1.073000000   0.441000000
  C    1.105000000   3.156000000  -0.185000000
  C    2.325000000   2.489000000   0.162000000
  C    0.112000000   2.255000000  -0.002000000
  C    1.983000000   1.234000000   0.531000000
  H    0.990000000   4.169000000  -0.526000000
  H    3.320000000   2.897000000   0.137000000
  H   -0.953000000   2.282000000  -0.130000000
  H    2.536000000   0.376000000   0.864000000
  S   -0.380200000  -0.863000000   0.278600000
  F   -1.127200000  -2.289000000   0.166600000
  F    0.108800000  -0.765000000  -1.249400000
