19
charge=0 charge_a=0 charge_b=0 selection_a=1-10 selection_b=11-19 scaling=1.05 benchmark_Eint=-5.684 benchmark_unit=kcal/mol group=S
  O    1.193000000   1.461000000  -0.269000000
  C    0.566000000   2.475000000  -0.056000000
  C    1.191000000   3.837000000  -0.225000000
  C   -0.877000000   2.440000000   0.383000000
  H    2.178000000   3.749000000  -0.669000000
  H    0.557000000   4.477000000  -0.841000000
  H    1.274000000   4.320000000   0.751000000
  H   -1.163000000   1.432000000   0.669000000
  H   -1.508000000   2.771000000  -0.444000000
  H   -1.049000000   3.131000000   1.208000000
  S   -0.015550000  -1.325700000  -0.386600000
  O    0.657450000  -5.040700000  -0.002600000
  N   -0.332550000  -2.992700000  -0.358600000
  C    0.738450000  -3.826700000  -0.052600000
  C    1.894450000  -2.958700000   0.177400000
  C    1.625450000  -1.649700000   0.031400000
  H    2.856450000  -3.367700000   0.433400000
  H   -1.241550000  -3.363700000  -0.575600000
  H    2.284450000  -0.806700000   0.135400000
