19
charge=0 charge_a=0 charge_b=0 selection_a=1-10 selection_b=11-19 scaling=0.9 benchmark_Eint=-4.928 benchmark_unit=kcal/mol group=S
  O    1.193000000   1.461000000  -0.269000000
  C    0.566000000   2.475000000  -0.056000000
  C    1.191000000   3.837000000  -0.225000000
  C   -0.877000000   2.440000000   0.383000000
  H    2.178000000   3.749000000  -0.669000000
  H    0.557000000   4.477000000  -0.841000000
  H    1.274000000   4.320000000   0.751000000
  H   -1.163000000   1.432000000   0.669000000
  H   -1.508000000   2.771000000  -0.444000000
  H   -1.049000000   3.131000000   1.208000000
  S    0.157100000  -0.927600000  -0.369800000
  O    0.830100000  -4.642600000   0.014200000
  N   -0.159900000  -2.594600000  -0.341800000
  C    0.911100000  -3.428600000  -0.035800000
  C    2.067100000  -2.560600000   0.194200000
  C    1.798100000  -1.251600000   0.048200000
  H    3.029100000  -2.969600000   0.450200000
  H   -1.068900000  -2.965600000  -0.558800000
  H    2.457100000  -0.408600000   0.152200000
