16
charge=0 charge_a=0 charge_b=0 selection_a=1-12 selection_b=13-16 scaling=1.25 benchmark_Eint=-1.775 benchmark_unit=kcal/mol group=S
  O    1.939000000   0.977000000   2.128000000
  N    2.712000000   0.524000000   1.218000000
  C    3.182000000   1.345000000   0.235000000
  C    3.065000000  -0.793000000   1.199000000
  C    4.002000000   0.867000000  -0.762000000
  C    3.883000000  -1.298000000   0.214000000
  C    4.370000000  -0.472000000  -0.790000000
  H    2.850000000   2.365000000   0.322000000
  H    2.645000000  -1.370000000   2.005000000
  H    4.346000000   1.558000000  -1.518000000
  H    4.132000000  -2.349000000   0.242000000
  H    5.010000000  -0.857000000  -1.568000000
  F   -3.407000000  -0.209250000  -1.154250000
  F   -1.744000000  -0.822250000  -2.314250000
  S   -1.106000000   0.185750000   0.001750000
  C   -2.091000000  -0.283250000  -1.159250000
