19
charge=0 charge_a=0 charge_b=0 selection_a=1-10 selection_b=11-19 scaling=0.85 benchmark_Eint=-3.215 benchmark_unit=kcal/mol group=S
  O    1.193000000   1.461000000  -0.269000000
  C    0.566000000   2.475000000  -0.056000000
  C    1.191000000   3.837000000  -0.225000000
  C   -0.877000000   2.440000000   0.383000000
  H    2.178000000   3.749000000  -0.669000000
  H    0.557000000   4.477000000  -0.841000000
  H    1.274000000   4.320000000   0.751000000
  H   -1.163000000   1.432000000   0.669000000
  H   -1.508000000   2.771000000  -0.444000000
  H   -1.049000000   3.131000000   1.208000000
  S    0.214650000  -0.794900000  -0.364200000
  O    0.887650000  -4.509900000   0.019800000
  N   -0.102350000  -2.461900000  -0.336200000
  C    0.968650000  -3.295900000  -0.030200000
  C    2.124650000  -2.427900000   0.199800000
  C    1.855650000  -1.118900000   0.053800000
  H    3.086650000  -2.836900000   0.455800000
  H   -1.011350000  -2.832900000  -0.553200000
  H    2.514650000  -0.275900000   0.157800000
