15
charge=0 charge_a=0 charge_b=0 selection_a=1-3 selection_b=4-15 scaling=0.9 benchmark_Eint=-9.687 benchmark_unit=kcal/mol group=S
  S    1.121000000   1.016000000   0.147000000
  F    2.122000000   1.628000000   1.300000000
  F    1.333000000  -0.528000000   0.611000000
  O   -0.199300000   0.161900000  -1.283100000
  N   -1.136300000  -0.470100000  -0.647100000
  C   -1.018300000  -1.801100000  -0.415100000
  C   -2.224300000   0.201900000  -0.195100000
  C   -2.000300000  -2.487100000   0.263900000
  C   -3.225300000  -0.453100000   0.486900000
  C   -3.126300000  -1.818100000   0.725900000
  H   -0.111300000  -2.237100000  -0.796100000
  H   -2.217300000   1.255900000  -0.416100000
  H   -1.871300000  -3.546100000   0.428900000
  H   -4.076300000   0.114900000   0.828900000
  H   -3.902300000  -2.344100000   1.258900000
