13
charge=0 charge_a=0 charge_b=0 selection_a=1-9 selection_b=10-13 scaling=1.0 benchmark_Eint=-1.738 benchmark_unit=kcal/mol group=S
  O   -2.027000000  -0.561000000  -0.162000000
  C   -3.741000000   0.837000000   0.108000000
  C   -4.253000000  -0.470000000  -0.179000000
  C   -2.391000000   0.724000000   0.106000000
  C   -3.174000000  -1.274000000  -0.333000000
  H   -4.306000000   1.733000000   0.290000000
  H   -5.284000000  -0.764000000  -0.259000000
  H   -1.586000000   1.415000000   0.266000000
  H   -3.052000000  -2.317000000  -0.554000000
  F    3.070000000   1.472000000   0.353000000
  F    3.755000000  -0.491000000  -0.054000000
  S    1.164000000  -0.254000000  -0.045000000
  C    2.672000000   0.245000000   0.085000000
