13
charge=0 charge_a=0 charge_b=0 selection_a=1-9 selection_b=10-13 scaling=1.0 benchmark_Eint=-3.668 benchmark_unit=kcal/mol group=S
  O   -2.218000000   1.136000000   1.164000000
  C   -3.401000000   0.010000000  -0.353000000
  C   -3.367000000   1.392000000  -0.729000000
  C   -2.692000000  -0.088000000   0.795000000
  C   -2.640000000   2.026000000   0.222000000
  H   -3.886000000  -0.796000000  -0.874000000
  H   -3.826000000   1.846000000  -1.589000000
  H   -2.432000000  -0.908000000   1.438000000
  H   -2.345000000   3.047000000   0.373000000
  F    2.533000000   0.913000000   0.523000000
  F    0.151000000  -1.471000000  -0.915000000
  S    0.877000000   0.915000000   0.540000000
  S    0.255000000   0.171000000  -1.093000000
