19
charge=0 charge_a=0 charge_b=0 selection_a=1-10 selection_b=11-19 scaling=0.8 benchmark_Eint=-0.011 benchmark_unit=kcal/mol group=S
  O    1.193000000   1.461000000  -0.269000000
  C    0.566000000   2.475000000  -0.056000000
  C    1.191000000   3.837000000  -0.225000000
  C   -0.877000000   2.440000000   0.383000000
  H    2.178000000   3.749000000  -0.669000000
  H    0.557000000   4.477000000  -0.841000000
  H    1.274000000   4.320000000   0.751000000
  H   -1.163000000   1.432000000   0.669000000
  H   -1.508000000   2.771000000  -0.444000000
  H   -1.049000000   3.131000000   1.208000000
  S    0.272200000  -0.662200000  -0.358600000
  O    0.945200000  -4.377200000   0.025400000
  N   -0.044800000  -2.329200000  -0.330600000
  C    1.026200000  -3.163200000  -0.024600000
  C    2.182200000  -2.295200000   0.205400000
  C    1.913200000  -0.986200000   0.059400000
  H    3.144200000  -2.704200000   0.461400000
  H   -0.953800000  -2.700200000  -0.547600000
  H    2.572200000  -0.143200000   0.163400000
