14
charge=0 charge_a=0 charge_b=0 selection_a=1-10 selection_b=11-14 scaling=1.25 benchmark_Eint=-1.216 benchmark_unit=kcal/mol group=S
  O   -2.012000000  -0.923000000  -0.309000000
  C   -2.831000000  -0.057000000  -0.102000000
  C   -4.314000000  -0.348000000  -0.119000000
  C   -2.428000000   1.371000000   0.188000000
  H   -4.818000000   0.300000000  -0.838000000
  H   -4.489000000  -1.389000000  -0.373000000
  H   -4.747000000  -0.130000000   0.859000000
  H   -1.347000000   1.460000000   0.219000000
  H   -2.857000000   1.698000000   1.136000000
  H   -2.830000000   2.031000000  -0.584000000
  F    3.898250000   1.349250000   0.295000000
  F    4.459250000  -0.634750000  -0.191000000
  S    1.884250000  -0.251750000  -0.114000000
  C    3.421250000   0.155250000  -0.003000000
