19
charge=0 charge_a=0 charge_b=0 selection_a=1-10 selection_b=11-19 scaling=1.0 benchmark_Eint=-5.855 benchmark_unit=kcal/mol group=S
  O    1.193000000   1.461000000  -0.269000000
  C    0.566000000   2.475000000  -0.056000000
  C    1.191000000   3.837000000  -0.225000000
  C   -0.877000000   2.440000000   0.383000000
  H    2.178000000   3.749000000  -0.669000000
  H    0.557000000   4.477000000  -0.841000000
  H    1.274000000   4.320000000   0.751000000
  H   -1.163000000   1.432000000   0.669000000
  H   -1.508000000   2.771000000  -0.444000000
  H   -1.049000000   3.131000000   1.208000000
  S    0.042000000  -1.193000000  -0.381000000
  O    0.715000000  -4.908000000   0.003000000
  N   -0.275000000  -2.860000000  -0.353000000
  C    0.796000000  -3.694000000  -0.047000000
  C    1.952000000  -2.826000000   0.183000000
  C    1.683000000  -1.517000000   0.037000000
  H    2.914000000  -3.235000000   0.439000000
  H   -1.184000000  -3.231000000  -0.570000000
  H    2.342000000  -0.674000000   0.141000000
