13
charge=0 charge_a=0 charge_b=0 selection_a=1-10 selection_b=11-13 scaling=0.9 benchmark_Eint=-5.251 benchmark_unit=kcal/mol group=S
  O   -0.869000000   1.338000000  -0.161000000
  C   -0.382000000   2.449000000  -0.108000000
  C    1.106000000   2.676000000  -0.183000000
  C   -1.253000000   3.668000000   0.053000000
  H    1.340000000   3.614000000  -0.685000000
  H    1.494000000   2.743000000   0.836000000
  H    1.595000000   1.843000000  -0.678000000
  H   -2.283000000   3.378000000   0.237000000
  H   -1.199000000   4.270000000  -0.856000000
  H   -0.884000000   4.293000000   0.867000000
  S    0.329800000  -0.634800000  -0.215000000
  F    1.187800000  -2.016800000  -0.210000000
  F    1.001800000  -0.020800000   1.121000000
