12
charge=0 charge_a=0 charge_b=0 selection_a=1-9 selection_b=10-12 scaling=1.5 benchmark_Eint=-0.400 benchmark_unit=kcal/mol group=S
  O   -1.417000000   0.418000000   0.065000000
  C   -3.639000000   0.550000000   0.165000000
  C   -3.263000000  -0.830000000   0.079000000
  C   -2.486000000   1.259000000   0.152000000
  C   -1.911000000  -0.851000000   0.021000000
  H   -4.634000000   0.952000000   0.227000000
  H   -3.916000000  -1.684000000   0.063000000
  H   -2.258000000   2.307000000   0.196000000
  H   -1.182000000  -1.637000000  -0.049000000
  S    3.279500000  -0.011000000  -0.151000000
  O    5.890500000  -0.752000000  -0.297000000
  C    4.780500000  -0.437000000  -0.235000000
