10
charge=0 charge_a=0 charge_b=0 selection_a=1-7 selection_b=8-10 scaling=1.25 benchmark_Eint=-3.032 benchmark_unit=kcal/mol group=S
  O   -1.099000000   0.807000000   0.005000000
  O   -1.632000000  -1.275000000  -0.243000000
  N   -1.909000000  -0.104000000  -0.072000000
  C   -3.349000000   0.264000000   0.084000000
  H   -3.513000000   0.434000000   1.145000000
  H   -3.949000000  -0.561000000  -0.278000000
  H   -3.517000000   1.181000000  -0.468000000
  S    2.089750000  -0.459250000  -0.040000000
  F    2.450750000   1.092750000   0.180000000
  F    3.606750000  -1.022250000  -0.018000000
