13
charge=0 charge_a=0 charge_b=0 selection_a=1-9 selection_b=10-13 scaling=0.8 benchmark_Eint=3.074 benchmark_unit=kcal/mol group=S
  O   -2.218000000   1.136000000   1.164000000
  C   -3.401000000   0.010000000  -0.353000000
  C   -3.367000000   1.392000000  -0.729000000
  C   -2.692000000  -0.088000000   0.795000000
  C   -2.640000000   2.026000000   0.222000000
  H   -3.886000000  -0.796000000  -0.874000000
  H   -3.826000000   1.846000000  -1.589000000
  H   -2.432000000  -0.908000000   1.438000000
  H   -2.345000000   3.047000000   0.373000000
  F    1.914000000   0.957200000   0.647800000
  F   -0.468000000  -1.426800000  -0.790200000
  S    0.258000000   0.959200000   0.664800000
  S   -0.364000000   0.215200000  -0.968200000
