13
charge=0 charge_a=0 charge_b=0 selection_a=1-9 selection_b=10-13 scaling=0.95 benchmark_Eint=-1.665 benchmark_unit=kcal/mol group=S
  O   -2.027000000  -0.561000000  -0.162000000
  C   -3.741000000   0.837000000   0.108000000
  C   -4.253000000  -0.470000000  -0.179000000
  C   -2.391000000   0.724000000   0.106000000
  C   -3.174000000  -1.274000000  -0.333000000
  H   -4.306000000   1.733000000   0.290000000
  H   -5.284000000  -0.764000000  -0.259000000
  H   -1.586000000   1.415000000   0.266000000
  H   -3.052000000  -2.317000000  -0.554000000
  F    2.910450000   1.456650000   0.347150000
  F    3.595450000  -0.506350000  -0.059850000
  S    1.004450000  -0.269350000  -0.050850000
  C    2.512450000   0.229650000   0.079150000
