19
charge=0 charge_a=0 charge_b=0 selection_a=1-12 selection_b=13-19 scaling=1.1 benchmark_Eint=-6.686 benchmark_unit=kcal/mol group=S
  O    1.192000000   1.040000000   0.954000000
  N    2.314000000   0.564000000   0.553000000
  C    3.054000000   1.229000000  -0.376000000
  C    2.771000000  -0.624000000   1.038000000
  C    4.255000000   0.726000000  -0.823000000
  C    3.968000000  -1.153000000   0.610000000
  C    4.735000000  -0.482000000  -0.333000000
  H    2.613000000   2.153000000  -0.708000000
  H    2.118000000  -1.085000000   1.759000000
  H    4.806000000   1.289000000  -1.560000000
  H    4.288000000  -2.098000000   1.022000000
  H    5.673000000  -0.888000000  -0.677000000
  H   -1.358300000   0.725200000   0.729700000
  S   -0.626300000  -1.091800000  -0.545300000
  N   -2.247300000  -3.043800000  -1.838300000
  C   -1.916300000  -0.046800000   0.210700000
  C   -1.612300000  -2.237800000  -1.305300000
  H   -2.506300000  -0.629800000   0.909700000
  H   -2.545300000   0.386200000  -0.560300000
