22
charge=0 charge_a=0 charge_b=0 selection_a=1-10 selection_b=11-22 scaling=1.1 benchmark_Eint=-4.847 benchmark_unit=kcal/mol group=S
  S   -0.886000000  -0.417000000  -0.517000000
  O   -3.847000000   1.939000000  -1.420000000
  C   -1.762000000   1.174000000  -0.477000000
  C   -3.061000000   1.026000000  -1.278000000
  C   -3.178000000  -0.328000000  -1.810000000
  C   -2.144000000  -1.122000000  -1.485000000
  H   -1.130000000   1.947000000  -0.906000000
  H   -1.972000000   1.447000000   0.553000000
  H   -4.026000000  -0.632000000  -2.403000000
  H   -2.036000000  -2.156000000  -1.778000000
  O    1.011500000   1.542100000   1.289200000
  N    1.945500000   0.683100000   1.443200000
  C    3.132500000   0.826100000   0.788200000
  C    1.764500000  -0.398900000   2.252200000
  C    4.144500000  -0.094900000   0.938200000
  C    2.759500000  -1.335900000   2.422200000
  C    3.974500000  -1.198900000   1.764200000
  H    3.186500000   1.703100000   0.167200000
  H    0.796500000  -0.437900000   2.721200000
  H    5.067500000   0.063100000   0.400200000
  H    2.567500000  -2.174900000   3.074200000
  H    4.760500000  -1.926900000   1.889200000
