19
charge=0 charge_a=0 charge_b=0 selection_a=1-10 selection_b=11-19 scaling=1.5 benchmark_Eint=-2.254 benchmark_unit=kcal/mol group=S
  O    1.193000000   1.461000000  -0.269000000
  C    0.566000000   2.475000000  -0.056000000
  C    1.191000000   3.837000000  -0.225000000
  C   -0.877000000   2.440000000   0.383000000
  H    2.178000000   3.749000000  -0.669000000
  H    0.557000000   4.477000000  -0.841000000
  H    1.274000000   4.320000000   0.751000000
  H   -1.163000000   1.432000000   0.669000000
  H   -1.508000000   2.771000000  -0.444000000
  H   -1.049000000   3.131000000   1.208000000
  S   -0.533500000  -2.520000000  -0.437000000
  O    0.139500000  -6.235000000  -0.053000000
  N   -0.850500000  -4.187000000  -0.409000000
  C    0.220500000  -5.021000000  -0.103000000
  C    1.376500000  -4.153000000   0.127000000
  C    1.107500000  -2.844000000  -0.019000000
  H    2.338500000  -4.562000000   0.383000000
  H   -1.759500000  -4.558000000  -0.626000000
  H    1.766500000  -2.001000000   0.085000000
