22
charge=0 charge_a=0 charge_b=0 selection_a=1-10 selection_b=11-22 scaling=2.0 benchmark_Eint=-0.507 benchmark_unit=kcal/mol group=S
  S   -0.886000000  -0.417000000  -0.517000000
  O   -3.847000000   1.939000000  -1.420000000
  C   -1.762000000   1.174000000  -0.477000000
  C   -3.061000000   1.026000000  -1.278000000
  C   -3.178000000  -0.328000000  -1.810000000
  C   -2.144000000  -1.122000000  -1.485000000
  H   -1.130000000   1.947000000  -0.906000000
  H   -1.972000000   1.447000000   0.553000000
  H   -4.026000000  -0.632000000  -2.403000000
  H   -2.036000000  -2.156000000  -1.778000000
  O    2.564000000   3.145000000   2.767000000
  N    3.498000000   2.286000000   2.921000000
  C    4.685000000   2.429000000   2.266000000
  C    3.317000000   1.204000000   3.730000000
  C    5.697000000   1.508000000   2.416000000
  C    4.312000000   0.267000000   3.900000000
  C    5.527000000   0.404000000   3.242000000
  H    4.739000000   3.306000000   1.645000000
  H    2.349000000   1.165000000   4.199000000
  H    6.620000000   1.666000000   1.878000000
  H    4.120000000  -0.572000000   4.552000000
  H    6.313000000  -0.324000000   3.367000000
