13
charge=0 charge_a=0 charge_b=0 selection_a=1-10 selection_b=11-13 scaling=1.5 benchmark_Eint=-2.390 benchmark_unit=kcal/mol group=S
  O   -0.869000000   1.338000000  -0.161000000
  C   -0.382000000   2.449000000  -0.108000000
  C    1.106000000   2.676000000  -0.183000000
  C   -1.253000000   3.668000000   0.053000000
  H    1.340000000   3.614000000  -0.685000000
  H    1.494000000   2.743000000   0.836000000
  H    1.595000000   1.843000000  -0.678000000
  H   -2.283000000   3.378000000   0.237000000
  H   -1.199000000   4.270000000  -0.856000000
  H   -0.884000000   4.293000000   0.867000000
  S    1.129000000  -1.950000000  -0.251000000
  F    1.987000000  -3.332000000  -0.246000000
  F    1.801000000  -1.336000000   1.085000000
