15
charge=0 charge_a=0 charge_b=0 selection_a=1-3 selection_b=4-15 scaling=0.8 benchmark_Eint=-1.666 benchmark_unit=kcal/mol group=S
  S    1.121000000   1.016000000   0.147000000
  F    2.122000000   1.628000000   1.300000000
  F    1.333000000  -0.528000000   0.611000000
  O   -0.052600000   0.256800000  -1.124200000
  N   -0.989600000  -0.375200000  -0.488200000
  C   -0.871600000  -1.706200000  -0.256200000
  C   -2.077600000   0.296800000  -0.036200000
  C   -1.853600000  -2.392200000   0.422800000
  C   -3.078600000  -0.358200000   0.645800000
  C   -2.979600000  -1.723200000   0.884800000
  H    0.035400000  -2.142200000  -0.637200000
  H   -2.070600000   1.350800000  -0.257200000
  H   -1.724600000  -3.451200000   0.587800000
  H   -3.929600000   0.209800000   0.987800000
  H   -3.755600000  -2.249200000   1.417800000
