15
charge=0 charge_a=0 charge_b=0 selection_a=1-12 selection_b=13-15 scaling=2.0 benchmark_Eint=-0.282 benchmark_unit=kcal/mol group=S
  O   -0.265000000   1.542000000  -0.023000000
  N   -1.357000000   0.883000000   0.024000000
  C   -1.349000000  -0.482000000   0.056000000
  C   -2.557000000   1.533000000   0.044000000
  C   -2.521000000  -1.201000000   0.108000000
  C   -3.745000000   0.838000000   0.096000000
  C   -3.748000000  -0.550000000   0.129000000
  H   -0.364000000  -0.917000000   0.037000000
  H   -2.473000000   2.606000000   0.017000000
  H   -2.460000000  -2.279000000   0.131000000
  H   -4.667000000   1.400000000   0.110000000
  H   -4.672000000  -1.105000000   0.169000000
  S    5.183000000  -0.994000000  -0.111000000
  O    7.519000000  -2.390000000  -0.141000000
  C    6.527000000  -1.795000000  -0.128000000
