13
charge=0 charge_a=0 charge_b=0 selection_a=1-9 selection_b=10-13 scaling=0.95 benchmark_Eint=-3.539 benchmark_unit=kcal/mol group=S
  O   -2.218000000   1.136000000   1.164000000
  C   -3.401000000   0.010000000  -0.353000000
  C   -3.367000000   1.392000000  -0.729000000
  C   -2.692000000  -0.088000000   0.795000000
  C   -2.640000000   2.026000000   0.222000000
  H   -3.886000000  -0.796000000  -0.874000000
  H   -3.826000000   1.846000000  -1.589000000
  H   -2.432000000  -0.908000000   1.438000000
  H   -2.345000000   3.047000000   0.373000000
  F    2.378250000   0.924050000   0.554200000
  F   -0.003750000  -1.459950000  -0.883800000
  S    0.722250000   0.926050000   0.571200000
  S    0.100250000   0.182050000  -1.061800000
