22
charge=0 charge_a=0 charge_b=0 selection_a=1-10 selection_b=11-22 scaling=0.95 benchmark_Eint=-5.537 benchmark_unit=kcal/mol group=S
  S   -0.886000000  -0.417000000  -0.517000000
  O   -3.847000000   1.939000000  -1.420000000
  C   -1.762000000   1.174000000  -0.477000000
  C   -3.061000000   1.026000000  -1.278000000
  C   -3.178000000  -0.328000000  -1.810000000
  C   -2.144000000  -1.122000000  -1.485000000
  H   -1.130000000   1.947000000  -0.906000000
  H   -1.972000000   1.447000000   0.553000000
  H   -4.026000000  -0.632000000  -2.403000000
  H   -2.036000000  -2.156000000  -1.778000000
  O    0.752750000   1.274950000   1.042900000
  N    1.686750000   0.415950000   1.196900000
  C    2.873750000   0.558950000   0.541900000
  C    1.505750000  -0.666050000   2.005900000
  C    3.885750000  -0.362050000   0.691900000
  C    2.500750000  -1.603050000   2.175900000
  C    3.715750000  -1.466050000   1.517900000
  H    2.927750000   1.435950000  -0.079100000
  H    0.537750000  -0.705050000   2.474900000
  H    4.808750000  -0.204050000   0.153900000
  H    2.308750000  -2.442050000   2.827900000
  H    4.501750000  -2.194050000   1.642900000
