15
charge=0 charge_a=0 charge_b=0 selection_a=1-3 selection_b=4-15 scaling=0.95 benchmark_Eint=-10.886 benchmark_unit=kcal/mol group=S
  S    1.121000000   1.016000000   0.147000000
  F    2.122000000   1.628000000   1.300000000
  F    1.333000000  -0.528000000   0.611000000
  O   -0.272650000   0.114450000  -1.362550000
  N   -1.209650000  -0.517550000  -0.726550000
  C   -1.091650000  -1.848550000  -0.494550000
  C   -2.297650000   0.154450000  -0.274550000
  C   -2.073650000  -2.534550000   0.184450000
  C   -3.298650000  -0.500550000   0.407450000
  C   -3.199650000  -1.865550000   0.646450000
  H   -0.184650000  -2.284550000  -0.875550000
  H   -2.290650000   1.208450000  -0.495550000
  H   -1.944650000  -3.593550000   0.349450000
  H   -4.149650000   0.067450000   0.749450000
  H   -3.975650000  -2.391550000   1.179450000
