19
charge=0 charge_a=0 charge_b=0 selection_a=1-12 selection_b=13-19 scaling=0.95 benchmark_Eint=-7.372 benchmark_unit=kcal/mol group=S
  O    1.192000000   1.040000000   0.954000000
  N    2.314000000   0.564000000   0.553000000
  C    3.054000000   1.229000000  -0.376000000
  C    2.771000000  -0.624000000   1.038000000
  C    4.255000000   0.726000000  -0.823000000
  C    3.968000000  -1.153000000   0.610000000
  C    4.735000000  -0.482000000  -0.333000000
  H    2.613000000   2.153000000  -0.708000000
  H    2.118000000  -1.085000000   1.759000000
  H    4.806000000   1.289000000  -1.560000000
  H    4.288000000  -2.098000000   1.022000000
  H    5.673000000  -0.888000000  -0.677000000
  H   -1.110350000   1.015900000   0.934150000
  S   -0.378350000  -0.801100000  -0.340850000
  N   -1.999350000  -2.753100000  -1.633850000
  C   -1.668350000   0.243900000   0.415150000
  C   -1.364350000  -1.947100000  -1.100850000
  H   -2.258350000  -0.339100000   1.114150000
  H   -2.297350000   0.676900000  -0.355850000
