16
charge=0 charge_a=0 charge_b=0 selection_a=1-12 selection_b=13-16 scaling=1.05 benchmark_Eint=-5.194 benchmark_unit=kcal/mol group=S
  C    3.106000000  -1.323000000   0.162000000
  C    4.111000000  -0.879000000  -0.668000000
  C    4.500000000   0.454000000  -0.647000000
  C    3.844000000   1.309000000   0.229000000
  C    2.842000000   0.835000000   1.046000000
  N    2.472000000  -0.475000000   1.019000000
  O    1.534000000  -0.902000000   1.779000000
  H    2.282000000   1.435000000   1.741000000
  H    2.747000000  -2.338000000   0.203000000
  H    4.100000000   2.356000000   0.285000000
  H    4.583000000  -1.589000000  -1.329000000
  H    5.285000000   0.815000000  -1.293000000
  S   -1.176050000  -0.223700000   0.660750000
  S   -2.971050000   0.271300000   0.256750000
  F   -3.418050000  -0.428700000  -1.179250000
  F   -0.189050000   0.880300000  -0.093250000
