22
charge=0 charge_a=0 charge_b=0 selection_a=1-10 selection_b=11-22 scaling=0.85 benchmark_Eint=-3.275 benchmark_unit=kcal/mol group=S
  S   -0.886000000  -0.417000000  -0.517000000
  O   -3.847000000   1.939000000  -1.420000000
  C   -1.762000000   1.174000000  -0.477000000
  C   -3.061000000   1.026000000  -1.278000000
  C   -3.178000000  -0.328000000  -1.810000000
  C   -2.144000000  -1.122000000  -1.485000000
  H   -1.130000000   1.947000000  -0.906000000
  H   -1.972000000   1.447000000   0.553000000
  H   -4.026000000  -0.632000000  -2.403000000
  H   -2.036000000  -2.156000000  -1.778000000
  O    0.580250000   1.096850000   0.878700000
  N    1.514250000   0.237850000   1.032700000
  C    2.701250000   0.380850000   0.377700000
  C    1.333250000  -0.844150000   1.841700000
  C    3.713250000  -0.540150000   0.527700000
  C    2.328250000  -1.781150000   2.011700000
  C    3.543250000  -1.644150000   1.353700000
  H    2.755250000   1.257850000  -0.243300000
  H    0.365250000  -0.883150000   2.310700000
  H    4.636250000  -0.382150000  -0.010300000
  H    2.136250000  -2.620150000   2.663700000
  H    4.329250000  -2.372150000   1.478700000
