17
charge=0 charge_a=0 charge_b=0 selection_a=1-13 selection_b=14-17 scaling=0.9 benchmark_Eint=-3.490 benchmark_unit=kcal/mol group=Se
  N   -0.890000000  -0.414000000  -2.842000000
  C   -1.472000000  -1.712000000  -3.128000000
  C   -1.773000000   0.675000000  -3.216000000
  C    0.428000000  -0.269000000  -3.432000000
  H   -2.428000000  -1.808000000  -2.615000000
  H   -0.812000000  -2.499000000  -2.768000000
  H   -1.644000000  -1.871000000  -4.206000000
  H   -2.728000000   0.568000000  -2.702000000
  H   -1.969000000   0.708000000  -4.300000000
  H   -1.332000000   1.625000000  -2.919000000
  H    0.861000000   0.686000000  -3.137000000
  H    0.407000000  -0.312000000  -4.533000000
  H    1.081000000  -1.064000000  -3.073000000
  F    0.212800000  -1.151800000   2.337800000
  F   -0.050200000   0.947200000   2.259800000
 Se   -0.393200000  -0.253800000  -0.194200000
  C   -0.062200000  -0.148800000   1.533800000
