19
charge=0 charge_a=0 charge_b=0 selection_a=1-10 selection_b=11-19 scaling=1.1 benchmark_Eint=-7.130 benchmark_unit=kcal/mol group=Se
  C   -1.468000000   0.389000000  -0.068000000
  C   -2.690000000   1.029000000  -0.243000000
  N   -3.839000000   0.358000000  -0.245000000
  C   -3.761000000  -0.959000000  -0.070000000
  C   -2.543000000  -1.604000000   0.106000000
  N   -1.397000000  -0.928000000   0.105000000
  H   -2.485000000  -2.675000000   0.251000000
  H   -4.689000000  -1.516000000  -0.069000000
  H   -0.536000000   0.939000000  -0.065000000
  H   -2.740000000   2.100000000  -0.384000000
 Se    1.190200000  -2.249100000   0.953100000
  N    2.833200000  -3.124100000   1.066100000
  C    3.408200000  -3.537100000  -0.115900000
  O    4.477200000  -4.120100000  -0.189900000
  C    1.394200000  -2.521100000  -0.898900000
  C    2.522200000  -3.157100000  -1.229900000
  H    2.807200000  -3.399100000  -2.241900000
  H    3.301200000  -3.301100000   1.939100000
  H    0.621200000  -2.161100000  -1.552900000
