17
charge=0 charge_a=0 charge_b=0 selection_a=1-10 selection_b=11-17 scaling=1.05 benchmark_Eint=-5.516 benchmark_unit=kcal/mol group=Se
  C   -3.368000000   0.970000000  -0.780000000
  N   -3.990000000  -0.010000000  -0.129000000
  C   -3.221000000  -0.842000000   0.568000000
  C   -1.840000000  -0.695000000   0.617000000
  N   -1.221000000   0.288000000  -0.032000000
  C   -1.987000000   1.119000000  -0.734000000
  H   -1.222000000  -1.381000000   1.183000000
  H   -3.714000000  -1.645000000   1.101000000
  H   -1.490000000   1.916000000  -1.271000000
  H   -3.982000000   1.652000000  -1.354000000
 Se    1.790400000  -0.044850000  -0.759650000
  C    3.604400000  -0.195850000  -1.125650000
  N    4.725400000  -0.308850000  -1.377650000
  C    2.026400000   1.166150000   0.776350000
  H    1.019400000   1.364150000   1.125350000
  H    2.509400000   2.078150000   0.444350000
  H    2.611400000   0.668150000   1.540350000
