19
charge=0 charge_a=0 charge_b=0 selection_a=1-10 selection_b=11-19 scaling=1.05 benchmark_Eint=-7.680 benchmark_unit=kcal/mol group=Se
  C   -1.468000000   0.389000000  -0.068000000
  C   -2.690000000   1.029000000  -0.243000000
  N   -3.839000000   0.358000000  -0.245000000
  C   -3.761000000  -0.959000000  -0.070000000
  C   -2.543000000  -1.604000000   0.106000000
  N   -1.397000000  -0.928000000   0.105000000
  H   -2.485000000  -2.675000000   0.251000000
  H   -4.689000000  -1.516000000  -0.069000000
  H   -0.536000000   0.939000000  -0.065000000
  H   -2.740000000   2.100000000  -0.384000000
 Se    1.072600000  -2.189050000   0.914550000
  N    2.715600000  -3.064050000   1.027550000
  C    3.290600000  -3.477050000  -0.154450000
  O    4.359600000  -4.060050000  -0.228450000
  C    1.276600000  -2.461050000  -0.937450000
  C    2.404600000  -3.097050000  -1.268450000
  H    2.689600000  -3.339050000  -2.280450000
  H    3.183600000  -3.241050000   1.900550000
  H    0.503600000  -2.101050000  -1.591450000
