10
charge=0 charge_a=0 charge_b=0 selection_a=1-6 selection_b=7-10 scaling=0.95 benchmark_Eint=-5.205 benchmark_unit=kcal/mol group=Se
  N   -1.826000000   0.426000000  -1.769000000
  C   -3.318000000  -0.021000000   0.314000000
  C   -2.498000000   0.231000000  -0.858000000
  H   -2.669000000  -0.179000000   1.173000000
  H   -3.932000000  -0.906000000   0.160000000
  H   -3.968000000   0.830000000   0.508000000
  F   -0.299200000  -0.060700000   1.053950000
  F    3.291800000  -1.671700000   0.710950000
 Se    0.837800000   0.078300000  -0.343050000
 Se    2.837800000   0.058300000   0.594950000
