21
charge=0 charge_a=0 charge_b=0 selection_a=1-13 selection_b=14-21 scaling=1.25 benchmark_Eint=-3.829 benchmark_unit=kcal/mol group=Se
  C   -0.647000000  -1.211000000  -1.813000000
  N   -0.183000000   0.078000000  -1.328000000
  C    1.253000000   0.226000000  -1.492000000
  C   -0.916000000   1.175000000  -1.936000000
  H   -1.713000000  -1.315000000  -1.616000000
  H   -0.124000000  -2.010000000  -1.290000000
  H   -0.480000000  -1.336000000  -2.894000000
  H   -1.979000000   1.066000000  -1.728000000
  H   -0.779000000   1.219000000  -3.028000000
  H   -0.583000000   2.123000000  -1.516000000
  H    1.579000000   1.177000000  -1.073000000
  H    1.562000000   0.195000000  -2.548000000
  H    1.767000000  -0.573000000  -0.960000000
 Se   -1.098000000  -0.373250000   2.175750000
  C   -0.392000000   1.334750000   2.376750000
  C   -0.490000000   1.718750000   3.675750000
  C   -1.096000000   0.721750000   4.503750000
  N   -1.478000000  -0.403250000   3.967750000
  H   -0.150000000   2.672750000   4.050750000
  H    0.020000000   1.893750000   1.556750000
  H   -1.252000000   0.863750000   5.567750000
