20
charge=0 charge_a=0 charge_b=0 selection_a=1-10 selection_b=11-20 scaling=0.85 benchmark_Eint=-1.456 benchmark_unit=kcal/mol group=Se
  C   -2.246000000  -1.314000000  -0.355000000
  N   -1.321000000  -0.459000000   0.075000000
  C   -1.743000000   0.757000000   0.409000000
  C   -3.082000000   1.117000000   0.312000000
  N   -4.009000000   0.265000000  -0.117000000
  C   -3.585000000  -0.952000000  -0.450000000
  H   -1.916000000  -2.307000000  -0.630000000
  H   -4.328000000  -1.658000000  -0.801000000
  H   -0.997000000   1.458000000   0.763000000
  H   -3.412000000   2.111000000   0.587000000
 Se    1.219650000  -0.496400000   0.896950000
  C    1.380650000  -0.841400000  -1.028050000
  C    2.864650000  -0.815400000  -1.406050000
  O    3.229650000  -1.005400000  -2.547050000
  C    3.107650000  -0.367400000   0.913950000
  C    3.729650000  -0.544400000  -0.260050000
  H    0.835650000  -0.080400000  -1.578050000
  H    0.951650000  -1.812400000  -1.258050000
  H    4.800650000  -0.497400000  -0.391050000
  H    3.603650000  -0.161400000   1.849950000
