18
charge=0 charge_a=0 charge_b=0 selection_a=1-10 selection_b=11-18 scaling=0.9 benchmark_Eint=-3.708 benchmark_unit=kcal/mol group=Se
  N   -1.690000000  -0.297000000  -0.013000000
  N   -4.438000000   0.177000000  -0.029000000
  C   -2.569000000  -1.288000000   0.111000000
  C   -3.939000000  -1.050000000   0.102000000
  C   -2.185000000   0.931000000  -0.141000000
  C   -3.556000000   1.166000000  -0.150000000
  H   -2.174000000  -2.289000000   0.222000000
  H   -4.645000000  -1.865000000   0.203000000
  H   -1.476000000   1.743000000  -0.237000000
  H   -3.947000000   2.170000000  -0.256000000
 Se    0.880400000  -0.667800000   0.782600000
  N    2.669400000  -0.961800000   1.009600000
  C    2.395400000  -1.145800000  -1.326400000
  C    1.091400000  -0.887800000  -1.050400000
  C    3.215400000  -1.173800000  -0.155400000
  H    2.780400000  -1.312800000  -2.321400000
  H    0.265400000  -0.809800000  -1.735400000
  H    4.282400000  -1.366800000  -0.192400000
