17
charge=0 charge_a=0 charge_b=0 selection_a=1-10 selection_b=11-17 scaling=1.25 benchmark_Eint=-3.671 benchmark_unit=kcal/mol group=Se
  C   -3.368000000   0.970000000  -0.780000000
  N   -3.990000000  -0.010000000  -0.129000000
  C   -3.221000000  -0.842000000   0.568000000
  C   -1.840000000  -0.695000000   0.617000000
  N   -1.221000000   0.288000000  -0.032000000
  C   -1.987000000   1.119000000  -0.734000000
  H   -1.222000000  -1.381000000   1.183000000
  H   -3.714000000  -1.645000000   1.101000000
  H   -1.490000000   1.916000000  -1.271000000
  H   -3.982000000   1.652000000  -1.354000000
 Se    2.364000000  -0.108250000  -0.898250000
  C    4.178000000  -0.259250000  -1.264250000
  N    5.299000000  -0.372250000  -1.516250000
  C    2.600000000   1.102750000   0.637750000
  H    1.593000000   1.300750000   0.986750000
  H    3.083000000   2.014750000   0.305750000
  H    3.185000000   0.604750000   1.401750000
