17
charge=0 charge_a=0 charge_b=0 selection_a=1-10 selection_b=11-17 scaling=0.8 benchmark_Eint=0.854 benchmark_unit=kcal/mol group=Se
  C   -3.368000000   0.970000000  -0.780000000
  N   -3.990000000  -0.010000000  -0.129000000
  C   -3.221000000  -0.842000000   0.568000000
  C   -1.840000000  -0.695000000   0.617000000
  N   -1.221000000   0.288000000  -0.032000000
  C   -1.987000000   1.119000000  -0.734000000
  H   -1.222000000  -1.381000000   1.183000000
  H   -3.714000000  -1.645000000   1.101000000
  H   -1.490000000   1.916000000  -1.271000000
  H   -3.982000000   1.652000000  -1.354000000
 Se    1.073400000   0.034400000  -0.586400000
  C    2.887400000  -0.116600000  -0.952400000
  N    4.008400000  -0.229600000  -1.204400000
  C    1.309400000   1.245400000   0.949600000
  H    0.302400000   1.443400000   1.298600000
  H    1.792400000   2.157400000   0.617600000
  H    1.894400000   0.747400000   1.713600000
