13
charge=0 charge_a=0 charge_b=0 selection_a=1-7 selection_b=8-13 scaling=1.0 benchmark_Eint=-5.219 benchmark_unit=kcal/mol group=Se
  C   -1.252000000   1.745000000   0.026000000
 Se   -1.388000000  -0.220000000   0.014000000
  C   -3.235000000  -0.284000000   0.016000000
  N   -4.388000000  -0.355000000   0.017000000
  H   -0.185000000   1.937000000   0.026000000
  H   -1.718000000   2.130000000   0.925000000
  H   -1.721000000   2.142000000  -0.866000000
  N    1.707000000   0.122000000   0.011000000
  C    2.637000000  -0.550000000   0.005000000
  C    3.811000000  -1.405000000  -0.003000000
  H    4.715000000  -0.799000000  -0.004000000
  H    3.808000000  -2.035000000  -0.891000000
  H    3.815000000  -2.041000000   0.880000000
