21
charge=0 charge_a=0 charge_b=0 selection_a=1-13 selection_b=14-21 scaling=1.0 benchmark_Eint=-6.373 benchmark_unit=kcal/mol group=Se
  C   -0.647000000  -1.211000000  -1.813000000
  N   -0.183000000   0.078000000  -1.328000000
  C    1.253000000   0.226000000  -1.492000000
  C   -0.916000000   1.175000000  -1.936000000
  H   -1.713000000  -1.315000000  -1.616000000
  H   -0.124000000  -2.010000000  -1.290000000
  H   -0.480000000  -1.336000000  -2.894000000
  H   -1.979000000   1.066000000  -1.728000000
  H   -0.779000000   1.219000000  -3.028000000
  H   -0.583000000   2.123000000  -1.516000000
  H    1.579000000   1.177000000  -1.073000000
  H    1.562000000   0.195000000  -2.548000000
  H    1.767000000  -0.573000000  -0.960000000
 Se   -0.915000000  -0.283000000   1.475000000
  C   -0.209000000   1.425000000   1.676000000
  C   -0.307000000   1.809000000   2.975000000
  C   -0.913000000   0.812000000   3.803000000
  N   -1.295000000  -0.313000000   3.267000000
  H    0.033000000   2.763000000   3.350000000
  H    0.203000000   1.984000000   0.856000000
  H   -1.069000000   0.954000000   4.867000000
