21
charge=0 charge_a=0 charge_b=0 selection_a=1-13 selection_b=14-21 scaling=1.05 benchmark_Eint=-6.080 benchmark_unit=kcal/mol group=Se
  C   -0.647000000  -1.211000000  -1.813000000
  N   -0.183000000   0.078000000  -1.328000000
  C    1.253000000   0.226000000  -1.492000000
  C   -0.916000000   1.175000000  -1.936000000
  H   -1.713000000  -1.315000000  -1.616000000
  H   -0.124000000  -2.010000000  -1.290000000
  H   -0.480000000  -1.336000000  -2.894000000
  H   -1.979000000   1.066000000  -1.728000000
  H   -0.779000000   1.219000000  -3.028000000
  H   -0.583000000   2.123000000  -1.516000000
  H    1.579000000   1.177000000  -1.073000000
  H    1.562000000   0.195000000  -2.548000000
  H    1.767000000  -0.573000000  -0.960000000
 Se   -0.951600000  -0.301050000   1.615150000
  C   -0.245600000   1.406950000   1.816150000
  C   -0.343600000   1.790950000   3.115150000
  C   -0.949600000   0.793950000   3.943150000
  N   -1.331600000  -0.331050000   3.407150000
  H   -0.003600000   2.744950000   3.490150000
  H    0.166400000   1.965950000   0.996150000
  H   -1.105600000   0.935950000   5.007150000
