16
charge=0 charge_a=0 charge_b=0 selection_a=1-6 selection_b=7-16 scaling=0.8 benchmark_Eint=1.029 benchmark_unit=kcal/mol group=Se
  N   -2.535000000  -0.935000000   0.093000000
  C   -4.703000000  -2.318000000   0.481000000
  C   -3.491000000  -1.545000000   0.264000000
  H   -4.585000000  -3.320000000   0.072000000
  H   -5.547000000  -1.835000000  -0.007000000
  H   -4.910000000  -2.396000000   1.547000000
 Se    0.028200000  -0.718200000   0.549000000
  O    0.724200000   2.684800000  -1.475000000
  C   -0.478800000   0.821800000  -0.558000000
  C    0.770200000   1.668800000  -0.812000000
  C    1.964200000   1.112800000  -0.177000000
  C    1.784200000  -0.024200000   0.511000000
  H   -1.234800000   1.401800000  -0.040000000
  H   -0.896800000   0.467800000  -1.495000000
  H    2.914200000   1.614800000  -0.279000000
  H    2.562200000  -0.558200000   1.035000000
