13
charge=0 charge_a=0 charge_b=0 selection_a=1-7 selection_b=8-13 scaling=0.85 benchmark_Eint=-2.922 benchmark_unit=kcal/mol group=Se
  C   -1.252000000   1.745000000   0.026000000
 Se   -1.388000000  -0.220000000   0.014000000
  C   -3.235000000  -0.284000000   0.016000000
  N   -4.388000000  -0.355000000   0.017000000
  H   -0.185000000   1.937000000   0.026000000
  H   -1.718000000   2.130000000   0.925000000
  H   -1.721000000   2.142000000  -0.866000000
  N    1.242750000   0.070700000   0.011450000
  C    2.172750000  -0.601300000   0.005450000
  C    3.346750000  -1.456300000  -0.002550000
  H    4.250750000  -0.850300000  -0.003550000
  H    3.343750000  -2.086300000  -0.890550000
  H    3.350750000  -2.092300000   0.880450000
