14
charge=0 charge_a=0 charge_b=0 selection_a=1-10 selection_b=11-14 scaling=2.0 benchmark_Eint=-0.197 benchmark_unit=kcal/mol group=Se
  N   -1.525000000  -0.352000000  -0.050000000
  N   -4.264000000   0.173000000   0.023000000
  C   -2.426000000  -1.321000000  -0.186000000
  C   -3.791000000  -1.058000000  -0.150000000
  C   -1.996000000   0.880000000   0.123000000
  C   -3.361000000   1.141000000   0.158000000
  H   -2.054000000  -2.328000000  -0.326000000
  H   -4.513000000  -1.857000000  -0.262000000
  H   -1.269000000   1.675000000   0.234000000
  H   -3.731000000   2.148000000   0.299000000
  F    6.942000000   1.657000000   0.236000000
  F    7.372000000  -0.397000000  -0.051000000
 Se    4.675000000   0.120000000   0.020000000
  C    6.395000000   0.473000000   0.070000000
