21
charge=0 charge_a=0 charge_b=0 selection_a=1-13 selection_b=14-21 scaling=2.0 benchmark_Eint=-0.516 benchmark_unit=kcal/mol group=Se
  C   -0.647000000  -1.211000000  -1.813000000
  N   -0.183000000   0.078000000  -1.328000000
  C    1.253000000   0.226000000  -1.492000000
  C   -0.916000000   1.175000000  -1.936000000
  H   -1.713000000  -1.315000000  -1.616000000
  H   -0.124000000  -2.010000000  -1.290000000
  H   -0.480000000  -1.336000000  -2.894000000
  H   -1.979000000   1.066000000  -1.728000000
  H   -0.779000000   1.219000000  -3.028000000
  H   -0.583000000   2.123000000  -1.516000000
  H    1.579000000   1.177000000  -1.073000000
  H    1.562000000   0.195000000  -2.548000000
  H    1.767000000  -0.573000000  -0.960000000
 Se   -1.647000000  -0.644000000   4.278000000
  C   -0.941000000   1.064000000   4.479000000
  C   -1.039000000   1.448000000   5.778000000
  C   -1.645000000   0.451000000   6.606000000
  N   -2.027000000  -0.674000000   6.070000000
  H   -0.699000000   2.402000000   6.153000000
  H   -0.529000000   1.623000000   3.659000000
  H   -1.801000000   0.593000000   7.670000000
