22
charge=0 charge_a=0 charge_b=0 selection_a=1-13 selection_b=14-22 scaling=0.85 benchmark_Eint=-6.986 benchmark_unit=kcal/mol group=Se
  N    0.050000000   0.079000000  -1.316000000
  C   -0.524000000  -1.203000000  -1.703000000
  C   -0.782000000   1.187000000  -1.768000000
  C    1.424000000   0.205000000  -1.787000000
  H   -1.528000000  -1.294000000  -1.291000000
  H    0.086000000  -2.012000000  -1.305000000
  H   -0.583000000  -1.315000000  -2.794000000
  H   -1.777000000   1.095000000  -1.338000000
  H   -0.873000000   1.215000000  -2.863000000
  H   -0.354000000   2.132000000  -1.438000000
  H    1.845000000   1.152000000  -1.457000000
  H    1.490000000   0.162000000  -2.883000000
  H    2.027000000  -0.600000000  -1.370000000
 Se   -0.040950000  -0.169200000   0.942450000
  O    0.616050000   1.236800000   4.591450000
  N    0.009050000  -0.094200000   2.819450000
  C    0.521050000   1.046800000   3.388450000
  C    0.924050000   1.970800000   2.313450000
  C    0.724050000   1.545800000   1.062450000
  H    1.352050000   2.927800000   2.567450000
  H   -0.318950000  -0.841200000   3.408450000
  H    0.952050000   2.074800000   0.154450000
