15
charge=0 charge_a=0 charge_b=0 selection_a=1-6 selection_b=7-15 scaling=1.0 benchmark_Eint=-6.253 benchmark_unit=kcal/mol group=Se
  N    2.507000000  -0.971000000  -0.155000000
  C    4.785000000  -2.210000000  -0.335000000
  C    3.513000000  -1.518000000  -0.234000000
  H    5.270000000  -2.243000000   0.639000000
  H    5.438000000  -1.691000000  -1.035000000
  H    4.629000000  -3.228000000  -0.687000000
 Se   -0.219000000  -0.461000000   0.772000000
  O   -3.323000000   1.947000000   0.490000000
  N   -1.912000000   0.234000000   1.070000000
  C   -2.245000000   1.386000000   0.386000000
  C   -1.103000000   1.787000000  -0.450000000
  C   -0.022000000   1.001000000  -0.391000000
  H   -1.177000000   2.672000000  -1.062000000
  H   -2.575000000  -0.191000000   1.696000000
  H    0.912000000   1.107000000  -0.914000000
