20
charge=0 charge_a=0 charge_b=0 selection_a=1-13 selection_b=14-20 scaling=0.8 benchmark_Eint=0.443 benchmark_unit=kcal/mol group=Se
  N    0.110000000   0.018000000  -1.304000000
  C   -0.112000000  -1.418000000  -1.372000000
  C   -1.055000000   0.769000000  -1.745000000
  C    1.301000000   0.406000000  -2.045000000
  H   -0.984000000  -1.688000000  -0.777000000
  H    0.753000000  -1.941000000  -0.968000000
  H   -0.282000000  -1.768000000  -2.401000000
  H   -1.924000000   0.492000000  -1.148000000
  H   -1.297000000   0.586000000  -2.802000000
  H   -0.876000000   1.834000000  -1.612000000
  H    1.476000000   1.474000000  -1.927000000
  H    1.214000000   0.185000000  -3.119000000
  H    2.166000000  -0.127000000  -1.654000000
  H   -1.383200000  -0.307800000   0.563800000
 Se    0.878800000   0.701200000   0.756800000
  N    1.889800000   1.598200000   3.458800000
  C   -0.858200000   0.067200000   1.433800000
  C    1.482800000   1.248200000   2.436800000
  H   -1.395200000   0.897200000   1.877800000
  H   -0.696200000  -0.724800000   2.154800000
