14
charge=0 charge_a=0 charge_b=0 selection_a=1-10 selection_b=11-14 scaling=1.25 benchmark_Eint=-1.875 benchmark_unit=kcal/mol group=Se
  N   -1.525000000  -0.352000000  -0.050000000
  N   -4.264000000   0.173000000   0.023000000
  C   -2.426000000  -1.321000000  -0.186000000
  C   -3.791000000  -1.058000000  -0.150000000
  C   -1.996000000   0.880000000   0.123000000
  C   -3.361000000   1.141000000   0.158000000
  H   -2.054000000  -2.328000000  -0.326000000
  H   -4.513000000  -1.857000000  -0.262000000
  H   -1.269000000   1.675000000   0.234000000
  H   -3.731000000   2.148000000   0.299000000
  F    4.617000000   1.480000000   0.209750000
  F    5.047000000  -0.574000000  -0.077250000
 Se    2.350000000  -0.057000000  -0.006250000
  C    4.070000000   0.296000000   0.043750000
