13
charge=0 charge_a=0 charge_b=0 selection_a=1-10 selection_b=11-13 scaling=0.9 benchmark_Eint=-12.785 benchmark_unit=kcal/mol group=Se
  N   -1.367000000  -0.001000000   0.000000000
  N   -4.137000000  -0.032000000   0.000000000
  C   -2.036000000  -1.150000000   0.000000000
  C   -3.426000000  -1.155000000   0.000000000
  C   -2.066000000   1.131000000   0.000000000
  C   -3.452000000   1.110000000   0.000000000
  H   -1.451000000  -2.058000000   0.000000000
  H   -3.972000000  -2.089000000   0.000000000
  H   -1.510000000   2.060000000   0.000000000
  H   -4.019000000   2.032000000   0.000000000
 Se    0.790300000   0.142100000   0.000000000
  F    2.576300000   0.004100000   0.000000000
  F    0.622300000  -1.615900000   0.000000000
