21
charge=0 charge_a=0 charge_b=0 selection_a=1-13 selection_b=14-21 scaling=0.85 benchmark_Eint=-3.100 benchmark_unit=kcal/mol group=Se
  C   -0.647000000  -1.211000000  -1.813000000
  N   -0.183000000   0.078000000  -1.328000000
  C    1.253000000   0.226000000  -1.492000000
  C   -0.916000000   1.175000000  -1.936000000
  H   -1.713000000  -1.315000000  -1.616000000
  H   -0.124000000  -2.010000000  -1.290000000
  H   -0.480000000  -1.336000000  -2.894000000
  H   -1.979000000   1.066000000  -1.728000000
  H   -0.779000000   1.219000000  -3.028000000
  H   -0.583000000   2.123000000  -1.516000000
  H    1.579000000   1.177000000  -1.073000000
  H    1.562000000   0.195000000  -2.548000000
  H    1.767000000  -0.573000000  -0.960000000
 Se   -0.805200000  -0.228850000   1.054550000
  C   -0.099200000   1.479150000   1.255550000
  C   -0.197200000   1.863150000   2.554550000
  C   -0.803200000   0.866150000   3.382550000
  N   -1.185200000  -0.258850000   2.846550000
  H    0.142800000   2.817150000   2.929550000
  H    0.312800000   2.038150000   0.435550000
  H   -0.959200000   1.008150000   4.446550000
