15
charge=0 charge_a=0 charge_b=0 selection_a=1-6 selection_b=7-15 scaling=1.05 benchmark_Eint=-6.030 benchmark_unit=kcal/mol group=Se
  N    2.507000000  -0.971000000  -0.155000000
  C    4.785000000  -2.210000000  -0.335000000
  C    3.513000000  -1.518000000  -0.234000000
  H    5.270000000  -2.243000000   0.639000000
  H    5.438000000  -1.691000000  -1.035000000
  H    4.629000000  -3.228000000  -0.687000000
 Se   -0.355300000  -0.435500000   0.818350000
  O   -3.459300000   1.972500000   0.536350000
  N   -2.048300000   0.259500000   1.116350000
  C   -2.381300000   1.411500000   0.432350000
  C   -1.239300000   1.812500000  -0.403650000
  C   -0.158300000   1.026500000  -0.344650000
  H   -1.313300000   2.697500000  -1.015650000
  H   -2.711300000  -0.165500000   1.742350000
  H    0.775700000   1.132500000  -0.867650000
