20
charge=0 charge_a=0 charge_b=0 selection_a=1-13 selection_b=14-20 scaling=1.5 benchmark_Eint=-2.415 benchmark_unit=kcal/mol group=Se
  N    0.110000000   0.018000000  -1.304000000
  C   -0.112000000  -1.418000000  -1.372000000
  C   -1.055000000   0.769000000  -1.745000000
  C    1.301000000   0.406000000  -2.045000000
  H   -0.984000000  -1.688000000  -0.777000000
  H    0.753000000  -1.941000000  -0.968000000
  H   -0.282000000  -1.768000000  -2.401000000
  H   -1.924000000   0.492000000  -1.148000000
  H   -1.297000000   0.586000000  -2.802000000
  H   -0.876000000   1.834000000  -1.612000000
  H    1.476000000   1.474000000  -1.927000000
  H    1.214000000   0.185000000  -3.119000000
  H    2.166000000  -0.127000000  -1.654000000
  H   -0.710500000   0.290000000   2.367000000
 Se    1.551500000   1.299000000   2.560000000
  N    2.562500000   2.196000000   5.262000000
  C   -0.185500000   0.665000000   3.237000000
  C    2.155500000   1.846000000   4.240000000
  H   -0.722500000   1.495000000   3.681000000
  H   -0.023500000  -0.127000000   3.958000000
