19
charge=0 charge_a=0 charge_b=0 selection_a=1-10 selection_b=11-19 scaling=1.25 benchmark_Eint=-5.123 benchmark_unit=kcal/mol group=Se
  C   -1.468000000   0.389000000  -0.068000000
  C   -2.690000000   1.029000000  -0.243000000
  N   -3.839000000   0.358000000  -0.245000000
  C   -3.761000000  -0.959000000  -0.070000000
  C   -2.543000000  -1.604000000   0.106000000
  N   -1.397000000  -0.928000000   0.105000000
  H   -2.485000000  -2.675000000   0.251000000
  H   -4.689000000  -1.516000000  -0.069000000
  H   -0.536000000   0.939000000  -0.065000000
  H   -2.740000000   2.100000000  -0.384000000
 Se    1.543000000  -2.429250000   1.068750000
  N    3.186000000  -3.304250000   1.181750000
  C    3.761000000  -3.717250000  -0.000250000
  O    4.830000000  -4.300250000  -0.074250000
  C    1.747000000  -2.701250000  -0.783250000
  C    2.875000000  -3.337250000  -1.114250000
  H    3.160000000  -3.579250000  -2.126250000
  H    3.654000000  -3.481250000   2.054750000
  H    0.974000000  -2.341250000  -1.437250000
