18
charge=0 charge_a=0 charge_b=0 selection_a=1-10 selection_b=11-18 scaling=0.95 benchmark_Eint=-4.485 benchmark_unit=kcal/mol group=Se
  N   -1.690000000  -0.297000000  -0.013000000
  N   -4.438000000   0.177000000  -0.029000000
  C   -2.569000000  -1.288000000   0.111000000
  C   -3.939000000  -1.050000000   0.102000000
  C   -2.185000000   0.931000000  -0.141000000
  C   -3.556000000   1.166000000  -0.150000000
  H   -2.174000000  -2.289000000   0.222000000
  H   -4.645000000  -1.865000000   0.203000000
  H   -1.476000000   1.743000000  -0.237000000
  H   -3.947000000   2.170000000  -0.256000000
 Se    1.023200000  -0.688400000   0.826800000
  N    2.812200000  -0.982400000   1.053800000
  C    2.538200000  -1.166400000  -1.282200000
  C    1.234200000  -0.908400000  -1.006200000
  C    3.358200000  -1.194400000  -0.111200000
  H    2.923200000  -1.333400000  -2.277200000
  H    0.408200000  -0.830400000  -1.691200000
  H    4.425200000  -1.387400000  -0.148200000
