15
charge=0 charge_a=0 charge_b=0 selection_a=1-6 selection_b=7-15 scaling=0.8 benchmark_Eint=-0.430 benchmark_unit=kcal/mol group=Se
  N    2.507000000  -0.971000000  -0.155000000
  C    4.785000000  -2.210000000  -0.335000000
  C    3.513000000  -1.518000000  -0.234000000
  H    5.270000000  -2.243000000   0.639000000
  H    5.438000000  -1.691000000  -1.035000000
  H    4.629000000  -3.228000000  -0.687000000
 Se    0.326200000  -0.563000000   0.586600000
  O   -2.777800000   1.845000000   0.304600000
  N   -1.366800000   0.132000000   0.884600000
  C   -1.699800000   1.284000000   0.200600000
  C   -0.557800000   1.685000000  -0.635400000
  C    0.523200000   0.899000000  -0.576400000
  H   -0.631800000   2.570000000  -1.247400000
  H   -2.029800000  -0.293000000   1.510600000
  H    1.457200000   1.005000000  -1.099400000
