9
charge=0 charge_a=0 charge_b=0 selection_a=1-6 selection_b=7-9 scaling=0.8 benchmark_Eint=-0.411 benchmark_unit=kcal/mol group=Se
  C   -3.611000000   0.134000000  -0.005000000
  C   -2.255000000  -0.371000000  -0.118000000
  N   -1.183000000  -0.766000000  -0.206000000
  H   -4.134000000  -0.376000000   0.801000000
  H   -4.149000000  -0.029000000  -0.937000000
  H   -3.588000000   1.202000000   0.208000000
 Se    0.932200000  -0.715600000  -0.215600000
  F    0.615200000   0.977400000   0.124400000
  F    2.690200000  -0.518600000  -0.192600000
