23
charge=0 charge_a=0 charge_b=0 selection_a=1-13 selection_b=14-23 scaling=1.1 benchmark_Eint=-4.878 benchmark_unit=kcal/mol group=Se
  C   -0.636000000  -1.166000000  -1.948000000
  N   -0.244000000   0.107000000  -1.369000000
  C    1.199000000   0.239000000  -1.290000000
  C   -0.856000000   1.224000000  -2.065000000
  H   -1.721000000  -1.260000000  -1.931000000
  H   -0.214000000  -1.982000000  -1.363000000
  H   -0.296000000  -1.277000000  -2.990000000
  H   -1.940000000   1.129000000  -2.032000000
  H   -0.547000000   1.286000000  -3.121000000
  H   -0.579000000   2.159000000  -1.580000000
  H    1.459000000   1.183000000  -0.811000000
  H    1.681000000   0.217000000  -2.281000000
  H    1.611000000  -0.573000000  -0.693000000
 Se   -1.619000000  -0.416600000   1.612000000
  C   -2.242000000  -0.308600000   3.400000000
  C   -1.955000000   0.817400000   4.069000000
  C   -1.194000000   1.820400000   3.328000000
  C   -0.870000000   1.373400000   1.900000000
  O   -0.835000000   2.900400000   3.749000000
  H   -1.304000000   2.066400000   1.186000000
  H    0.205000000   1.342400000   1.755000000
  H   -2.248000000   1.009400000   5.091000000
  H   -2.795000000  -1.141600000   3.808000000
