21
charge=0 charge_a=0 charge_b=0 selection_a=1-13 selection_b=14-21 scaling=0.8 benchmark_Eint=1.270 benchmark_unit=kcal/mol group=Se
  C   -0.647000000  -1.211000000  -1.813000000
  N   -0.183000000   0.078000000  -1.328000000
  C    1.253000000   0.226000000  -1.492000000
  C   -0.916000000   1.175000000  -1.936000000
  H   -1.713000000  -1.315000000  -1.616000000
  H   -0.124000000  -2.010000000  -1.290000000
  H   -0.480000000  -1.336000000  -2.894000000
  H   -1.979000000   1.066000000  -1.728000000
  H   -0.779000000   1.219000000  -3.028000000
  H   -0.583000000   2.123000000  -1.516000000
  H    1.579000000   1.177000000  -1.073000000
  H    1.562000000   0.195000000  -2.548000000
  H    1.767000000  -0.573000000  -0.960000000
 Se   -0.768600000  -0.210800000   0.914400000
  C   -0.062600000   1.497200000   1.115400000
  C   -0.160600000   1.881200000   2.414400000
  C   -0.766600000   0.884200000   3.242400000
  N   -1.148600000  -0.240800000   2.706400000
  H    0.179400000   2.835200000   2.789400000
  H    0.349400000   2.056200000   0.295400000
  H   -0.922600000   1.026200000   4.306400000
