10
charge=0 charge_a=0 charge_b=0 selection_a=1-6 selection_b=7-10 scaling=2.0 benchmark_Eint=-0.199 benchmark_unit=kcal/mol group=Se
  N   -2.833000000  -0.299000000   0.317000000
  C   -5.393000000  -0.559000000   0.700000000
  C   -3.963000000  -0.413000000   0.486000000
  H   -5.608000000  -1.529000000   1.142000000
  H   -5.923000000  -0.479000000  -0.248000000
  H   -5.752000000   0.221000000   1.370000000
  F    6.115000000  -0.463000000  -1.004000000
  F    5.925000000   1.642000000  -0.856000000
 Se    3.523000000   0.339000000  -0.581000000
  C    5.250000000   0.512000000  -0.823000000
