18
charge=0 charge_a=0 charge_b=0 selection_a=1-10 selection_b=11-18 scaling=0.8 benchmark_Eint=1.344 benchmark_unit=kcal/mol group=Se
  N   -1.690000000  -0.297000000  -0.013000000
  N   -4.438000000   0.177000000  -0.029000000
  C   -2.569000000  -1.288000000   0.111000000
  C   -3.939000000  -1.050000000   0.102000000
  C   -2.185000000   0.931000000  -0.141000000
  C   -3.556000000   1.166000000  -0.150000000
  H   -2.174000000  -2.289000000   0.222000000
  H   -4.645000000  -1.865000000   0.203000000
  H   -1.476000000   1.743000000  -0.237000000
  H   -3.947000000   2.170000000  -0.256000000
 Se    0.594800000  -0.626600000   0.694200000
  N    2.383800000  -0.920600000   0.921200000
  C    2.109800000  -1.104600000  -1.414800000
  C    0.805800000  -0.846600000  -1.138800000
  C    2.929800000  -1.132600000  -0.243800000
  H    2.494800000  -1.271600000  -2.409800000
  H   -0.020200000  -0.768600000  -1.823800000
  H    3.996800000  -1.325600000  -0.280800000
