9
charge=0 charge_a=0 charge_b=0 selection_a=1-6 selection_b=7-9 scaling=1.0 benchmark_Eint=-8.271 benchmark_unit=kcal/mol group=Se
  C   -3.611000000   0.134000000  -0.005000000
  C   -2.255000000  -0.371000000  -0.118000000
  N   -1.183000000  -0.766000000  -0.206000000
  H   -4.134000000  -0.376000000   0.801000000
  H   -4.149000000  -0.029000000  -0.937000000
  H   -3.588000000   1.202000000   0.208000000
 Se    1.461000000  -0.703000000  -0.218000000
  F    1.144000000   0.990000000   0.122000000
  F    3.219000000  -0.506000000  -0.195000000
