22
charge=0 charge_a=0 charge_b=0 selection_a=1-13 selection_b=14-22 scaling=2.0 benchmark_Eint=-1.004 benchmark_unit=kcal/mol group=Se
  N    0.050000000   0.079000000  -1.316000000
  C   -0.524000000  -1.203000000  -1.703000000
  C   -0.782000000   1.187000000  -1.768000000
  C    1.424000000   0.205000000  -1.787000000
  H   -1.528000000  -1.294000000  -1.291000000
  H    0.086000000  -2.012000000  -1.305000000
  H   -0.583000000  -1.315000000  -2.794000000
  H   -1.777000000   1.095000000  -1.338000000
  H   -0.873000000   1.215000000  -2.863000000
  H   -0.354000000   2.132000000  -1.438000000
  H    1.845000000   1.152000000  -1.457000000
  H    1.490000000   0.162000000  -2.883000000
  H    2.027000000  -0.600000000  -1.370000000
 Se   -0.164000000  -0.505000000   3.998000000
  O    0.493000000   0.901000000   7.647000000
  N   -0.114000000  -0.430000000   5.875000000
  C    0.398000000   0.711000000   6.444000000
  C    0.801000000   1.635000000   5.369000000
  C    0.601000000   1.210000000   4.118000000
  H    1.229000000   2.592000000   5.623000000
  H   -0.442000000  -1.177000000   6.464000000
  H    0.829000000   1.739000000   3.210000000
