10
charge=0 charge_a=0 charge_b=0 selection_a=1-6 selection_b=7-10 scaling=0.85 benchmark_Eint=-2.042 benchmark_unit=kcal/mol group=Se
  N   -1.826000000   0.426000000  -1.769000000
  C   -3.318000000  -0.021000000   0.314000000
  C   -2.498000000   0.231000000  -0.858000000
  H   -2.669000000  -0.179000000   1.173000000
  H   -3.932000000  -0.906000000   0.160000000
  H   -3.968000000   0.830000000   0.508000000
  F   -0.579600000  -0.024100000   0.903850000
  F    3.011400000  -1.635100000   0.560850000
 Se    0.557400000   0.114900000  -0.493150000
 Se    2.557400000   0.094900000   0.444850000
