14
charge=0 charge_a=0 charge_b=0 selection_a=1-10 selection_b=11-14 scaling=0.95 benchmark_Eint=-5.536 benchmark_unit=kcal/mol group=Se
  N   -1.493000000   0.108000000   0.068000000
  N   -4.277000000  -0.003000000   0.016000000
  C   -2.145000000  -1.044000000   0.201000000
  C   -3.534000000  -1.096000000   0.175000000
  C   -2.232000000   1.203000000  -0.091000000
  C   -3.620000000   1.146000000  -0.117000000
  H   -1.544000000  -1.934000000   0.330000000
  H   -4.056000000  -2.038000000   0.284000000
  H   -1.709000000   2.145000000  -0.201000000
  H   -4.210000000   2.044000000  -0.247000000
  F    0.738750000  -1.751750000   0.347450000
  F    4.156750000  -0.648750000  -1.262550000
 Se    1.323750000  -0.067750000   0.116450000
 Se    3.521750000  -0.262750000   0.371450000
