9
charge=0 charge_a=0 charge_b=0 selection_a=1-6 selection_b=7-9 scaling=0.85 benchmark_Eint=-4.689 benchmark_unit=kcal/mol group=Se
  C   -3.611000000   0.134000000  -0.005000000
  C   -2.255000000  -0.371000000  -0.118000000
  N   -1.183000000  -0.766000000  -0.206000000
  H   -4.134000000  -0.376000000   0.801000000
  H   -4.149000000  -0.029000000  -0.937000000
  H   -3.588000000   1.202000000   0.208000000
 Se    1.064400000  -0.712450000  -0.216200000
  F    0.747400000   0.980550000   0.123800000
  F    2.822400000  -0.515450000  -0.193200000
