13
charge=0 charge_a=0 charge_b=0 selection_a=1-10 selection_b=11-13 scaling=1.05 benchmark_Eint=-3.654 benchmark_unit=kcal/mol group=Se
  C    1.171000000   3.080000000   0.073000000
  N    0.069000000   3.824000000   0.032000000
  C   -1.087000000   3.169000000  -0.027000000
  C   -1.143000000   1.780000000  -0.043000000
  N   -0.039000000   1.037000000  -0.001000000
  C    1.118000000   1.690000000   0.057000000
  H   -2.090000000   1.258000000  -0.090000000
  H   -1.993000000   3.761000000  -0.061000000
  H    2.022000000   1.095000000   0.091000000
  H    2.120000000   3.599000000   0.121000000
 Se   -0.027450000  -2.145550000  -0.032500000
  C    0.015550000  -3.871550000  -0.047500000
  O    0.044550000  -5.023550000  -0.058500000
