16
charge=0 charge_a=0 charge_b=0 selection_a=1-13 selection_b=14-16 scaling=1.25 benchmark_Eint=-13.377 benchmark_unit=kcal/mol group=Se
  N    0.011000000   0.009000000  -1.377000000
  C   -0.535000000  -1.271000000  -1.822000000
  C   -0.829000000   1.132000000  -1.804000000
  C    1.400000000   0.185000000  -1.811000000
  H   -1.546000000  -1.387000000  -1.436000000
  H    0.085000000  -2.081000000  -1.440000000
  H   -0.566000000  -1.337000000  -2.914000000
  H   -1.840000000   0.986000000  -1.435000000
  H   -0.852000000   1.213000000  -2.897000000
  H   -0.434000000   2.052000000  -1.384000000
  H    1.790000000   1.107000000  -1.391000000
  H    1.468000000   0.226000000  -2.903000000
  H    1.998000000  -0.646000000  -1.445000000
 Se   -0.079000000  -0.219750000   1.559250000
  F   -0.023000000  -0.099750000   3.363250000
  F    0.614000000   1.409250000   1.442250000
