17
charge=0 charge_a=0 charge_b=0 selection_a=1-13 selection_b=14-17 scaling=2.0 benchmark_Eint=-0.533 benchmark_unit=kcal/mol group=Se
  N    0.053000000  -0.019000000  -1.473000000
  C   -0.625000000  -1.254000000  -1.825000000
  C   -0.699000000   1.156000000  -1.887000000
  C    1.424000000   0.013000000  -1.958000000
  H   -1.621000000  -1.267000000  -1.383000000
  H   -0.065000000  -2.105000000  -1.437000000
  H   -0.731000000  -1.380000000  -2.912000000
  H   -1.696000000   1.126000000  -1.450000000
  H   -0.801000000   1.218000000  -2.980000000
  H   -0.195000000   2.052000000  -1.531000000
  H    1.913000000   0.916000000  -1.601000000
  H    1.475000000  -0.006000000  -3.056000000
  H    1.968000000  -0.848000000  -1.574000000
  F    1.046000000   1.548000000   3.612000000
  F   -0.849000000   0.914000000   6.968000000
 Se    0.227000000   0.011000000   4.067000000
 Se    0.537000000  -0.003000000   6.287000000
