19
charge=0 charge_a=0 charge_b=0 selection_a=1-10 selection_b=11-19 scaling=0.9 benchmark_Eint=-6.872 benchmark_unit=kcal/mol group=Se
  C   -1.468000000   0.389000000  -0.068000000
  C   -2.690000000   1.029000000  -0.243000000
  N   -3.839000000   0.358000000  -0.245000000
  C   -3.761000000  -0.959000000  -0.070000000
  C   -2.543000000  -1.604000000   0.106000000
  N   -1.397000000  -0.928000000   0.105000000
  H   -2.485000000  -2.675000000   0.251000000
  H   -4.689000000  -1.516000000  -0.069000000
  H   -0.536000000   0.939000000  -0.065000000
  H   -2.740000000   2.100000000  -0.384000000
 Se    0.719800000  -2.008900000   0.798900000
  N    2.362800000  -2.883900000   0.911900000
  C    2.937800000  -3.296900000  -0.270100000
  O    4.006800000  -3.879900000  -0.344100000
  C    0.923800000  -2.280900000  -1.053100000
  C    2.051800000  -2.916900000  -1.384100000
  H    2.336800000  -3.158900000  -2.396100000
  H    2.830800000  -3.060900000   1.784900000
  H    0.150800000  -1.920900000  -1.707100000
