9
charge=0 charge_a=0 charge_b=0 selection_a=1-6 selection_b=7-9 scaling=1.25 benchmark_Eint=-1.861 benchmark_unit=kcal/mol group=Se
  N   -1.518000000   0.001000000   0.000000000
  C   -4.119000000   0.000000000   0.000000000
  C   -2.666000000   0.000000000   0.000000000
  H   -4.493000000   0.384000000   0.947000000
  H   -4.493000000  -1.013000000  -0.141000000
  H   -4.493000000   0.628000000  -0.806000000
 Se    2.412000000  -0.000250000   0.000000000
  O    5.286000000  -0.001250000   0.000000000
  C    4.132000000  -0.001250000   0.000000000
