13
charge=0 charge_a=0 charge_b=0 selection_a=1-7 selection_b=8-13 scaling=1.1 benchmark_Eint=-4.705 benchmark_unit=kcal/mol group=Se
  C   -1.252000000   1.745000000   0.026000000
 Se   -1.388000000  -0.220000000   0.014000000
  C   -3.235000000  -0.284000000   0.016000000
  N   -4.388000000  -0.355000000   0.017000000
  H   -0.185000000   1.937000000   0.026000000
  H   -1.718000000   2.130000000   0.925000000
  H   -1.721000000   2.142000000  -0.866000000
  N    2.016500000   0.156200000   0.010700000
  C    2.946500000  -0.515800000   0.004700000
  C    4.120500000  -1.370800000  -0.003300000
  H    5.024500000  -0.764800000  -0.004300000
  H    4.117500000  -2.000800000  -0.891300000
  H    4.124500000  -2.006800000   0.879700000
