10
charge=0 charge_a=0 charge_b=0 selection_a=1-6 selection_b=7-10 scaling=0.8 benchmark_Eint=2.681 benchmark_unit=kcal/mol group=Se
  N   -1.826000000   0.426000000  -1.769000000
  C   -3.318000000  -0.021000000   0.314000000
  C   -2.498000000   0.231000000  -0.858000000
  H   -2.669000000  -0.179000000   1.173000000
  H   -3.932000000  -0.906000000   0.160000000
  H   -3.968000000   0.830000000   0.508000000
  F   -0.719800000  -0.005800000   0.828800000
  F    2.871200000  -1.616800000   0.485800000
 Se    0.417200000   0.133200000  -0.568200000
 Se    2.417200000   0.113200000   0.369800000
