16
charge=0 charge_a=0 charge_b=0 selection_a=1-6 selection_b=7-16 scaling=0.85 benchmark_Eint=-1.536 benchmark_unit=kcal/mol group=Se
  N   -2.535000000  -0.935000000   0.093000000
  C   -4.703000000  -2.318000000   0.481000000
  C   -3.491000000  -1.545000000   0.264000000
  H   -4.585000000  -3.320000000   0.072000000
  H   -5.547000000  -1.835000000  -0.007000000
  H   -4.910000000  -2.396000000   1.547000000
 Se    0.188400000  -0.704650000   0.577500000
  O    0.884400000   2.698350000  -1.446500000
  C   -0.318600000   0.835350000  -0.529500000
  C    0.930400000   1.682350000  -0.783500000
  C    2.124400000   1.126350000  -0.148500000
  C    1.944400000  -0.010650000   0.539500000
  H   -1.074600000   1.415350000  -0.011500000
  H   -0.736600000   0.481350000  -1.466500000
  H    3.074400000   1.628350000  -0.250500000
  H    2.722400000  -0.544650000   1.063500000
