13
charge=0 charge_a=0 charge_b=0 selection_a=1-10 selection_b=11-13 scaling=0.85 benchmark_Eint=-1.079 benchmark_unit=kcal/mol group=Se
  C    1.171000000   3.080000000   0.073000000
  N    0.069000000   3.824000000   0.032000000
  C   -1.087000000   3.169000000  -0.027000000
  C   -1.143000000   1.780000000  -0.043000000
  N   -0.039000000   1.037000000  -0.001000000
  C    1.118000000   1.690000000   0.057000000
  H   -2.090000000   1.258000000  -0.090000000
  H   -1.993000000   3.761000000  -0.061000000
  H    2.022000000   1.095000000   0.091000000
  H    2.120000000   3.599000000   0.121000000
 Se   -0.029650000  -1.539350000  -0.026500000
  C    0.013350000  -3.265350000  -0.041500000
  O    0.042350000  -4.417350000  -0.052500000
