17
charge=0 charge_a=0 charge_b=0 selection_a=1-10 selection_b=11-17 scaling=1.0 benchmark_Eint=-5.707 benchmark_unit=kcal/mol group=Se
  C   -3.368000000   0.970000000  -0.780000000
  N   -3.990000000  -0.010000000  -0.129000000
  C   -3.221000000  -0.842000000   0.568000000
  C   -1.840000000  -0.695000000   0.617000000
  N   -1.221000000   0.288000000  -0.032000000
  C   -1.987000000   1.119000000  -0.734000000
  H   -1.222000000  -1.381000000   1.183000000
  H   -3.714000000  -1.645000000   1.101000000
  H   -1.490000000   1.916000000  -1.271000000
  H   -3.982000000   1.652000000  -1.354000000
 Se    1.647000000  -0.029000000  -0.725000000
  C    3.461000000  -0.180000000  -1.091000000
  N    4.582000000  -0.293000000  -1.343000000
  C    1.883000000   1.182000000   0.811000000
  H    0.876000000   1.380000000   1.160000000
  H    2.366000000   2.094000000   0.479000000
  H    2.468000000   0.684000000   1.575000000
