16
charge=0 charge_a=0 charge_b=0 selection_a=1-6 selection_b=7-16 scaling=0.9 benchmark_Eint=-2.823 benchmark_unit=kcal/mol group=Se
  N   -2.535000000  -0.935000000   0.093000000
  C   -4.703000000  -2.318000000   0.481000000
  C   -3.491000000  -1.545000000   0.264000000
  H   -4.585000000  -3.320000000   0.072000000
  H   -5.547000000  -1.835000000  -0.007000000
  H   -4.910000000  -2.396000000   1.547000000
 Se    0.348600000  -0.691100000   0.606000000
  O    1.044600000   2.711900000  -1.418000000
  C   -0.158400000   0.848900000  -0.501000000
  C    1.090600000   1.695900000  -0.755000000
  C    2.284600000   1.139900000  -0.120000000
  C    2.104600000   0.002900000   0.568000000
  H   -0.914400000   1.428900000   0.017000000
  H   -0.576400000   0.494900000  -1.438000000
  H    3.234600000   1.641900000  -0.222000000
  H    2.882600000  -0.531100000   1.092000000
