16
charge=0 charge_a=0 charge_b=0 selection_a=1-6 selection_b=7-16 scaling=2.0 benchmark_Eint=-0.394 benchmark_unit=kcal/mol group=Se
  N   -2.535000000  -0.935000000   0.093000000
  C   -4.703000000  -2.318000000   0.481000000
  C   -3.491000000  -1.545000000   0.264000000
  H   -4.585000000  -3.320000000   0.072000000
  H   -5.547000000  -1.835000000  -0.007000000
  H   -4.910000000  -2.396000000   1.547000000
 Se    3.873000000  -0.393000000   1.233000000
  O    4.569000000   3.010000000  -0.791000000
  C    3.366000000   1.147000000   0.126000000
  C    4.615000000   1.994000000  -0.128000000
  C    5.809000000   1.438000000   0.507000000
  C    5.629000000   0.301000000   1.195000000
  H    2.610000000   1.727000000   0.644000000
  H    2.948000000   0.793000000  -0.811000000
  H    6.759000000   1.940000000   0.405000000
  H    6.407000000  -0.233000000   1.719000000
