22
charge=0 charge_a=0 charge_b=0 selection_a=1-13 selection_b=14-22 scaling=1.25 benchmark_Eint=-6.692 benchmark_unit=kcal/mol group=Se
  N    0.050000000   0.079000000  -1.316000000
  C   -0.524000000  -1.203000000  -1.703000000
  C   -0.782000000   1.187000000  -1.768000000
  C    1.424000000   0.205000000  -1.787000000
  H   -1.528000000  -1.294000000  -1.291000000
  H    0.086000000  -2.012000000  -1.305000000
  H   -0.583000000  -1.315000000  -2.794000000
  H   -1.777000000   1.095000000  -1.338000000
  H   -0.873000000   1.215000000  -2.863000000
  H   -0.354000000   2.132000000  -1.438000000
  H    1.845000000   1.152000000  -1.457000000
  H    1.490000000   0.162000000  -2.883000000
  H    2.027000000  -0.600000000  -1.370000000
 Se   -0.083750000  -0.286000000   2.005250000
  O    0.573250000   1.120000000   5.654250000
  N   -0.033750000  -0.211000000   3.882250000
  C    0.478250000   0.930000000   4.451250000
  C    0.881250000   1.854000000   3.376250000
  C    0.681250000   1.429000000   2.125250000
  H    1.309250000   2.811000000   3.630250000
  H   -0.361750000  -0.958000000   4.471250000
  H    0.909250000   1.958000000   1.217250000
