17
charge=0 charge_a=0 charge_b=0 selection_a=1-10 selection_b=11-17 scaling=2.0 benchmark_Eint=-0.604 benchmark_unit=kcal/mol group=Se
  C   -3.368000000   0.970000000  -0.780000000
  N   -3.990000000  -0.010000000  -0.129000000
  C   -3.221000000  -0.842000000   0.568000000
  C   -1.840000000  -0.695000000   0.617000000
  N   -1.221000000   0.288000000  -0.032000000
  C   -1.987000000   1.119000000  -0.734000000
  H   -1.222000000  -1.381000000   1.183000000
  H   -3.714000000  -1.645000000   1.101000000
  H   -1.490000000   1.916000000  -1.271000000
  H   -3.982000000   1.652000000  -1.354000000
 Se    4.515000000  -0.346000000  -1.418000000
  C    6.329000000  -0.497000000  -1.784000000
  N    7.450000000  -0.610000000  -2.036000000
  C    4.751000000   0.865000000   0.118000000
  H    3.744000000   1.063000000   0.467000000
  H    5.234000000   1.777000000  -0.214000000
  H    5.336000000   0.367000000   0.882000000
