18
charge=0 charge_a=0 charge_b=0 selection_a=1-10 selection_b=11-18 scaling=2.0 benchmark_Eint=-0.436 benchmark_unit=kcal/mol group=Se
  N   -1.690000000  -0.297000000  -0.013000000
  N   -4.438000000   0.177000000  -0.029000000
  C   -2.569000000  -1.288000000   0.111000000
  C   -3.939000000  -1.050000000   0.102000000
  C   -2.185000000   0.931000000  -0.141000000
  C   -3.556000000   1.166000000  -0.150000000
  H   -2.174000000  -2.289000000   0.222000000
  H   -4.645000000  -1.865000000   0.203000000
  H   -1.476000000   1.743000000  -0.237000000
  H   -3.947000000   2.170000000  -0.256000000
 Se    4.022000000  -1.121000000   1.755000000
  N    5.811000000  -1.415000000   1.982000000
  C    5.537000000  -1.599000000  -0.354000000
  C    4.233000000  -1.341000000  -0.078000000
  C    6.357000000  -1.627000000   0.817000000
  H    5.922000000  -1.766000000  -1.349000000
  H    3.407000000  -1.263000000  -0.763000000
  H    7.424000000  -1.820000000   0.780000000
