18
charge=0 charge_a=0 charge_b=0 selection_a=1-10 selection_b=11-18 scaling=0.85 benchmark_Eint=-1.956 benchmark_unit=kcal/mol group=Se
  N   -1.690000000  -0.297000000  -0.013000000
  N   -4.438000000   0.177000000  -0.029000000
  C   -2.569000000  -1.288000000   0.111000000
  C   -3.939000000  -1.050000000   0.102000000
  C   -2.185000000   0.931000000  -0.141000000
  C   -3.556000000   1.166000000  -0.150000000
  H   -2.174000000  -2.289000000   0.222000000
  H   -4.645000000  -1.865000000   0.203000000
  H   -1.476000000   1.743000000  -0.237000000
  H   -3.947000000   2.170000000  -0.256000000
 Se    0.737600000  -0.647200000   0.738400000
  N    2.526600000  -0.941200000   0.965400000
  C    2.252600000  -1.125200000  -1.370600000
  C    0.948600000  -0.867200000  -1.094600000
  C    3.072600000  -1.153200000  -0.199600000
  H    2.637600000  -1.292200000  -2.365600000
  H    0.122600000  -0.789200000  -1.779600000
  H    4.139600000  -1.346200000  -0.236600000
