13
charge=0 charge_a=0 charge_b=0 selection_a=1-7 selection_b=8-13 scaling=0.9 benchmark_Eint=-4.456 benchmark_unit=kcal/mol group=Se
  C   -1.252000000   1.745000000   0.026000000
 Se   -1.388000000  -0.220000000   0.014000000
  C   -3.235000000  -0.284000000   0.016000000
  N   -4.388000000  -0.355000000   0.017000000
  H   -0.185000000   1.937000000   0.026000000
  H   -1.718000000   2.130000000   0.925000000
  H   -1.721000000   2.142000000  -0.866000000
  N    1.397500000   0.087800000   0.011300000
  C    2.327500000  -0.584200000   0.005300000
  C    3.501500000  -1.439200000  -0.002700000
  H    4.405500000  -0.833200000  -0.003700000
  H    3.498500000  -2.069200000  -0.890700000
  H    3.505500000  -2.075200000   0.880300000
