20
charge=0 charge_a=0 charge_b=0 selection_a=1-13 selection_b=14-20 scaling=1.0 benchmark_Eint=-7.799 benchmark_unit=kcal/mol group=Se
  N    0.110000000   0.018000000  -1.304000000
  C   -0.112000000  -1.418000000  -1.372000000
  C   -1.055000000   0.769000000  -1.745000000
  C    1.301000000   0.406000000  -2.045000000
  H   -0.984000000  -1.688000000  -0.777000000
  H    0.753000000  -1.941000000  -0.968000000
  H   -0.282000000  -1.768000000  -2.401000000
  H   -1.924000000   0.492000000  -1.148000000
  H   -1.297000000   0.586000000  -2.802000000
  H   -0.876000000   1.834000000  -1.612000000
  H    1.476000000   1.474000000  -1.927000000
  H    1.214000000   0.185000000  -3.119000000
  H    2.166000000  -0.127000000  -1.654000000
  H   -1.191000000  -0.137000000   1.079000000
 Se    1.071000000   0.872000000   1.272000000
  N    2.082000000   1.769000000   3.974000000
  C   -0.666000000   0.238000000   1.949000000
  C    1.675000000   1.419000000   2.952000000
  H   -1.203000000   1.068000000   2.393000000
  H   -0.504000000  -0.554000000   2.670000000
