23
charge=0 charge_a=0 charge_b=0 selection_a=1-13 selection_b=14-23 scaling=0.8 benchmark_Eint=2.322 benchmark_unit=kcal/mol group=Se
  C   -0.636000000  -1.166000000  -1.948000000
  N   -0.244000000   0.107000000  -1.369000000
  C    1.199000000   0.239000000  -1.290000000
  C   -0.856000000   1.224000000  -2.065000000
  H   -1.721000000  -1.260000000  -1.931000000
  H   -0.214000000  -1.982000000  -1.363000000
  H   -0.296000000  -1.277000000  -2.990000000
  H   -1.940000000   1.129000000  -2.032000000
  H   -0.547000000   1.286000000  -3.121000000
  H   -0.579000000   2.159000000  -1.580000000
  H    1.459000000   1.183000000  -0.811000000
  H    1.681000000   0.217000000  -2.281000000
  H    1.611000000  -0.573000000  -0.693000000
 Se   -1.244000000  -0.273800000   0.799000000
  C   -1.867000000  -0.165800000   2.587000000
  C   -1.580000000   0.960200000   3.256000000
  C   -0.819000000   1.963200000   2.515000000
  C   -0.495000000   1.516200000   1.087000000
  O   -0.460000000   3.043200000   2.936000000
  H   -0.929000000   2.209200000   0.373000000
  H    0.580000000   1.485200000   0.942000000
  H   -1.873000000   1.152200000   4.278000000
  H   -2.420000000  -0.998800000   2.995000000
