14
charge=0 charge_a=0 charge_b=0 selection_a=1-10 selection_b=11-14 scaling=0.95 benchmark_Eint=-3.239 benchmark_unit=kcal/mol group=Se
  N   -1.525000000  -0.352000000  -0.050000000
  N   -4.264000000   0.173000000   0.023000000
  C   -2.426000000  -1.321000000  -0.186000000
  C   -3.791000000  -1.058000000  -0.150000000
  C   -1.996000000   0.880000000   0.123000000
  C   -3.361000000   1.141000000   0.158000000
  H   -2.054000000  -2.328000000  -0.326000000
  H   -4.513000000  -1.857000000  -0.262000000
  H   -1.269000000   1.675000000   0.234000000
  H   -3.731000000   2.148000000   0.299000000
  F    3.687000000   1.409200000   0.199250000
  F    4.117000000  -0.644800000  -0.087750000
 Se    1.420000000  -0.127800000  -0.016750000
  C    3.140000000   0.225200000   0.033250000
