20
charge=0 charge_a=0 charge_b=0 selection_a=1-10 selection_b=11-20 scaling=0.9 benchmark_Eint=-3.151 benchmark_unit=kcal/mol group=Se
  C   -2.246000000  -1.314000000  -0.355000000
  N   -1.321000000  -0.459000000   0.075000000
  C   -1.743000000   0.757000000   0.409000000
  C   -3.082000000   1.117000000   0.312000000
  N   -4.009000000   0.265000000  -0.117000000
  C   -3.585000000  -0.952000000  -0.450000000
  H   -1.916000000  -2.307000000  -0.630000000
  H   -4.328000000  -1.658000000  -0.801000000
  H   -0.997000000   1.458000000   0.763000000
  H   -3.412000000   2.111000000   0.587000000
 Se    1.369100000  -0.498600000   0.945300000
  C    1.530100000  -0.843600000  -0.979700000
  C    3.014100000  -0.817600000  -1.357700000
  O    3.379100000  -1.007600000  -2.498700000
  C    3.257100000  -0.369600000   0.962300000
  C    3.879100000  -0.546600000  -0.211700000
  H    0.985100000  -0.082600000  -1.529700000
  H    1.101100000  -1.814600000  -1.209700000
  H    4.950100000  -0.499600000  -0.342700000
  H    3.753100000  -0.163600000   1.898300000
