15
charge=0 charge_a=0 charge_b=0 selection_a=1-6 selection_b=7-15 scaling=0.9 benchmark_Eint=-5.408 benchmark_unit=kcal/mol group=Se
  N    2.507000000  -0.971000000  -0.155000000
  C    4.785000000  -2.210000000  -0.335000000
  C    3.513000000  -1.518000000  -0.234000000
  H    5.270000000  -2.243000000   0.639000000
  H    5.438000000  -1.691000000  -1.035000000
  H    4.629000000  -3.228000000  -0.687000000
 Se    0.053600000  -0.512000000   0.679300000
  O   -3.050400000   1.896000000   0.397300000
  N   -1.639400000   0.183000000   0.977300000
  C   -1.972400000   1.335000000   0.293300000
  C   -0.830400000   1.736000000  -0.542700000
  C    0.250600000   0.950000000  -0.483700000
  H   -0.904400000   2.621000000  -1.154700000
  H   -2.302400000  -0.242000000   1.603300000
  H    1.184600000   1.056000000  -1.006700000
