13
charge=0 charge_a=0 charge_b=0 selection_a=1-7 selection_b=8-13 scaling=0.95 benchmark_Eint=-5.103 benchmark_unit=kcal/mol group=Se
  C   -1.252000000   1.745000000   0.026000000
 Se   -1.388000000  -0.220000000   0.014000000
  C   -3.235000000  -0.284000000   0.016000000
  N   -4.388000000  -0.355000000   0.017000000
  H   -0.185000000   1.937000000   0.026000000
  H   -1.718000000   2.130000000   0.925000000
  H   -1.721000000   2.142000000  -0.866000000
  N    1.552250000   0.104900000   0.011150000
  C    2.482250000  -0.567100000   0.005150000
  C    3.656250000  -1.422100000  -0.002850000
  H    4.560250000  -0.816100000  -0.003850000
  H    3.653250000  -2.052100000  -0.890850000
  H    3.660250000  -2.058100000   0.880150000
