14
charge=0 charge_a=0 charge_b=0 selection_a=1-4 selection_b=5-14 scaling=0.85 benchmark_Eint=-0.967 benchmark_unit=kcal/mol group=Se
  C   -0.489000000  -2.931000000   0.076000000
 Se   -0.249000000  -1.193000000   0.046000000
  F   -1.621000000  -3.566000000  -0.142000000
  F    0.428000000  -3.841000000   0.320000000
  O   -0.045000000   1.430950000  -0.027950000
  C   -0.961000000   2.194950000  -0.229950000
  C   -2.380000000   1.710950000  -0.418950000
  C   -0.742000000   3.687950000  -0.305950000
  H   -1.016000000   4.051950000  -1.297950000
  H   -1.387000000   4.202950000   0.408050000
  H    0.298000000   3.925950000  -0.103950000
  H   -2.416000000   0.625950000  -0.405950000
  H   -2.785000000   2.086950000  -1.359950000
  H   -3.012000000   2.108950000   0.377050000
