12
charge=0 charge_a=0 charge_b=0 selection_a=1-9 selection_b=10-12 scaling=0.8 benchmark_Eint=2.327 benchmark_unit=kcal/mol group=Se
  C   -2.305000000  -1.167000000   0.000000000
  O   -1.444000000  -0.111000000   0.000000000
  C   -2.200000000   1.023000000   0.000000000
  C   -3.516000000   0.706000000   0.000000000
  C   -3.585000000  -0.725000000   0.000000000
  H   -4.339000000   1.398000000   0.000000000
  H   -4.470000000  -1.335000000   0.000000000
  H   -1.659000000   1.950000000   0.000000000
  H   -1.855000000  -2.141000000   0.000000000
 Se    0.983200000  -0.546200000   0.000000000
  C    2.655200000  -0.950200000   0.000000000
  O    3.774200000  -1.220200000   0.000000000
