13
charge=0 charge_a=0 charge_b=0 selection_a=1-10 selection_b=11-13 scaling=1.0 benchmark_Eint=-3.707 benchmark_unit=kcal/mol group=Se
  C    1.328000000   3.486000000  -0.014000000
  C    0.080000000   2.635000000  -0.003000000
  C   -1.239000000   3.371000000   0.015000000
  O    0.138000000   1.426000000  -0.008000000
  H    1.348000000   4.101000000  -0.916000000
  H    1.326000000   4.171000000   0.834000000
  H    2.212000000   2.857000000   0.019000000
  H   -2.067000000   2.671000000  -0.029000000
  H   -1.295000000   4.066000000  -0.824000000
  H   -1.314000000   3.970000000   0.925000000
 Se   -2.145000000  -0.526000000  -0.010000000
  C   -3.524000000  -1.559000000  -0.013000000
  O   -4.448000000  -2.247000000  -0.015000000
