19
charge=0 charge_a=0 charge_b=0 selection_a=1-10 selection_b=11-19 scaling=1.0 benchmark_Eint=-7.292 benchmark_unit=kcal/mol group=Se
  C    1.320000000   3.498000000  -0.166000000
  C    0.279000000   2.410000000  -0.108000000
  C   -1.128000000   2.828000000   0.238000000
  O    0.564000000   1.253000000  -0.338000000
  H    0.967000000   4.334000000  -0.769000000
  H    1.490000000   3.885000000   0.841000000
  H    2.251000000   3.111000000  -0.567000000
  H   -1.725000000   1.965000000   0.518000000
  H   -1.577000000   3.302000000  -0.638000000
  H   -1.132000000   3.568000000   1.038000000
 Se   -1.185000000  -0.935000000  -0.473000000
  C    0.409000000  -1.750000000   0.102000000
  C    0.297000000  -3.069000000   0.285000000
  C   -1.025000000  -3.656000000   0.014000000
  N   -1.884000000  -2.653000000  -0.386000000
  O   -1.351000000  -4.828000000   0.113000000
  H    1.104000000  -3.707000000   0.609000000
  H   -2.837000000  -2.871000000  -0.623000000
  H    1.274000000  -1.124000000   0.233000000
