16
charge=0 charge_a=0 charge_b=0 selection_a=1-9 selection_b=10-16 scaling=1.05 benchmark_Eint=-4.350 benchmark_unit=kcal/mol group=Se
  C   -2.178000000  -1.334000000  -0.426000000
  O   -1.649000000  -1.235000000   0.827000000
  C   -1.687000000   0.082000000   1.175000000
  C   -2.225000000   0.815000000   0.171000000
  C   -2.546000000  -0.110000000  -0.875000000
  H   -2.379000000   1.879000000   0.170000000
  H   -2.992000000   0.112000000  -1.828000000
  H   -1.300000000   0.323000000   2.147000000
  H   -2.218000000  -2.323000000  -0.842000000
 Se    1.544050000  -2.056100000   0.572900000
  C    3.336050000  -2.455100000   0.375900000
  N    4.453050000  -2.723100000   0.270900000
  C    1.522050000  -0.577100000  -0.730100000
  H    0.500050000  -0.213100000  -0.738100000
  H    1.801050000  -0.957100000  -1.705100000
  H    2.202050000   0.198900000  -0.398100000
