18
charge=0 charge_a=0 charge_b=0 selection_a=1-9 selection_b=10-18 scaling=0.85 benchmark_Eint=-2.679 benchmark_unit=kcal/mol group=Se
  C   -3.898000000  -0.757000000   0.489000000
  C   -3.713000000  -1.696000000  -0.579000000
  C   -2.966000000  -1.065000000  -1.515000000
  O   -2.672000000   0.203000000  -1.105000000
  C   -3.249000000   0.372000000   0.121000000
  H   -4.442000000  -0.910000000   1.404000000
  H   -4.089000000  -2.701000000  -0.636000000
  H   -3.100000000   1.330000000   0.582000000
  H   -2.572000000  -1.352000000  -2.471000000
 Se   -0.140700000   0.496250000  -0.923950000
  C   -0.416700000  -0.926750000   0.278050000
  C    0.710300000  -1.358750000   0.852050000
  C    1.949300000  -0.667750000   0.460050000
  O    3.081300000  -0.891750000   0.852050000
  N    1.639300000   0.317250000  -0.458950000
  H    0.755300000  -2.163750000   1.567050000
  H    2.364300000   0.899250000  -0.844950000
  H   -1.417700000  -1.294750000   0.427050000
