16
charge=0 charge_a=0 charge_b=0 selection_a=1-7 selection_b=8-16 scaling=1.1 benchmark_Eint=-5.120 benchmark_unit=kcal/mol group=Se
  C    2.117000000   2.407000000   0.011000000
  N    1.149000000   1.269000000  -0.052000000
  O   -0.038000000   1.534000000  -0.088000000
  O    1.620000000   0.143000000  -0.039000000
  H    1.615000000   3.296000000  -0.349000000
  H    2.982000000   2.139000000  -0.582000000
  H    2.399000000   2.515000000   1.055000000
 Se    0.276900000  -2.807200000   0.131500000
  C   -1.387100000  -1.932200000   0.043500000
  C   -2.428100000  -2.770200000   0.095500000
  C   -2.109100000  -4.202200000   0.210500000
  N   -0.735100000  -4.351200000   0.240500000
  O   -2.890100000  -5.136200000   0.272500000
  H   -3.459100000  -2.458200000   0.059500000
  H   -0.326100000  -5.267200000   0.312500000
  H   -1.395100000  -0.859200000  -0.039500000
