18
charge=0 charge_a=0 charge_b=0 selection_a=1-9 selection_b=10-18 scaling=1.5 benchmark_Eint=-1.520 benchmark_unit=kcal/mol group=Se
  C   -3.898000000  -0.757000000   0.489000000
  C   -3.713000000  -1.696000000  -0.579000000
  C   -2.966000000  -1.065000000  -1.515000000
  O   -2.672000000   0.203000000  -1.105000000
  C   -3.249000000   0.372000000   0.121000000
  H   -4.442000000  -0.910000000   1.404000000
  H   -4.089000000  -2.701000000  -0.636000000
  H   -3.100000000   1.330000000   0.582000000
  H   -2.572000000  -1.352000000  -2.471000000
 Se    1.795000000   0.720500000  -0.785500000
  C    1.519000000  -0.702500000   0.416500000
  C    2.646000000  -1.134500000   0.990500000
  C    3.885000000  -0.443500000   0.598500000
  O    5.017000000  -0.667500000   0.990500000
  N    3.575000000   0.541500000  -0.320500000
  H    2.691000000  -1.939500000   1.705500000
  H    4.300000000   1.123500000  -0.706500000
  H    0.518000000  -1.070500000   0.565500000
