16
charge=0 charge_a=0 charge_b=0 selection_a=1-7 selection_b=8-16 scaling=1.25 benchmark_Eint=-3.662 benchmark_unit=kcal/mol group=Se
  C    2.117000000   2.407000000   0.011000000
  N    1.149000000   1.269000000  -0.052000000
  O   -0.038000000   1.534000000  -0.088000000
  O    1.620000000   0.143000000  -0.039000000
  H    1.615000000   3.296000000  -0.349000000
  H    2.982000000   2.139000000  -0.582000000
  H    2.399000000   2.515000000   1.055000000
 Se    0.093750000  -3.209500000   0.154750000
  C   -1.570250000  -2.334500000   0.066750000
  C   -2.611250000  -3.172500000   0.118750000
  C   -2.292250000  -4.604500000   0.233750000
  N   -0.918250000  -4.753500000   0.263750000
  O   -3.073250000  -5.538500000   0.295750000
  H   -3.642250000  -2.860500000   0.082750000
  H   -0.509250000  -5.669500000   0.335750000
  H   -1.578250000  -1.261500000  -0.016250000
