16
charge=0 charge_a=0 charge_b=0 selection_a=1-9 selection_b=10-16 scaling=0.8 benchmark_Eint=2.565 benchmark_unit=kcal/mol group=Se
  C   -2.178000000  -1.334000000  -0.426000000
  O   -1.649000000  -1.235000000   0.827000000
  C   -1.687000000   0.082000000   1.175000000
  C   -2.225000000   0.815000000   0.171000000
  C   -2.546000000  -0.110000000  -0.875000000
  H   -2.379000000   1.879000000   0.170000000
  H   -2.992000000   0.112000000  -1.828000000
  H   -1.300000000   0.323000000   2.147000000
  H   -2.218000000  -2.323000000  -0.842000000
 Se    0.783800000  -1.860600000   0.633400000
  C    2.575800000  -2.259600000   0.436400000
  N    3.692800000  -2.527600000   0.331400000
  C    0.761800000  -0.381600000  -0.669600000
  H   -0.260200000  -0.017600000  -0.677600000
  H    1.040800000  -0.761600000  -1.644600000
  H    1.441800000   0.394400000  -0.337600000
