17
charge=0 charge_a=0 charge_b=0 selection_a=1-7 selection_b=8-17 scaling=0.85 benchmark_Eint=-3.462 benchmark_unit=kcal/mol group=Se
  C   -0.203000000  -1.132000000   0.249000000
 Se    1.435000000  -0.252000000  -0.399000000
  C    2.445000000  -1.799000000  -0.522000000
  N    3.102000000  -2.744000000  -0.607000000
  H   -0.920000000  -0.326000000   0.348000000
  H   -0.004000000  -1.600000000   1.205000000
  H   -0.531000000  -1.858000000  -0.486000000
  O   -0.174900000   1.689400000  -0.148250000
  C    0.163100000   2.853400000  -0.128250000
  C   -0.835900000   3.966400000  -0.317250000
  C    1.601100000   3.259400000   0.078750000
  H    2.004100000   3.627400000  -0.867250000
  H    1.675100000   4.078400000   0.793750000
  H    2.194100000   2.413400000   0.411750000
  H   -1.805900000   3.562400000  -0.592250000
  H   -0.490900000   4.667400000  -1.078250000
  H   -0.927900000   4.531400000   0.612750000
