20
charge=0 charge_a=0 charge_b=0 selection_a=1-12 selection_b=13-20 scaling=1.5 benchmark_Eint=-1.267 benchmark_unit=kcal/mol group=Se
  N    2.584000000   0.780000000  -0.138000000
  C    2.616000000  -0.538000000  -0.471000000
  C    3.792000000  -1.251000000  -0.447000000
  C    4.980000000  -0.633000000  -0.079000000
  C    4.933000000   0.714000000   0.259000000
  C    3.740000000   1.398000000   0.225000000
  O    1.476000000   1.424000000  -0.140000000
  H    3.619000000   2.435000000   0.487000000
  H    1.654000000  -0.948000000  -0.728000000
  H    5.823000000   1.247000000   0.558000000
  H    3.766000000  -2.297000000  -0.715000000
  H    5.909000000  -1.181000000  -0.053000000
  N    1.271000000   0.035000000   4.055000000
  C    1.322000000  -0.432000000   5.273000000
  C    0.262000000  -0.144000000   6.183000000
  C   -0.709000000   0.623000000   5.619000000
 Se   -0.267000000   1.001000000   3.850000000
  H    2.184000000  -1.031000000   5.546000000
  H    0.244000000  -0.500000000   7.202000000
  H   -1.611000000   0.977000000   6.090000000
