17
charge=0 charge_a=0 charge_b=0 selection_a=1-9 selection_b=10-17 scaling=2.0 benchmark_Eint=-0.195 benchmark_unit=kcal/mol group=Se
  C   -2.124000000  -1.215000000   0.239000000
  O   -1.247000000  -0.185000000   0.070000000
  C   -1.987000000   0.936000000  -0.162000000
  C   -3.307000000   0.636000000  -0.142000000
  C   -3.396000000  -0.770000000   0.120000000
  H   -4.120000000   1.324000000  -0.294000000
  H   -4.290000000  -1.361000000   0.206000000
  H   -1.433000000   1.843000000  -0.316000000
  H   -1.685000000  -2.177000000   0.431000000
 Se    4.589000000  -2.229000000   0.402000000
  C    6.156000000  -3.018000000   0.486000000
  N    6.386000000  -4.361000000   0.919000000
  F    5.230000000  -5.089000000   0.776000000
  F    7.272000000  -4.983000000   0.031000000
  N    7.405000000  -2.420000000   0.131000000
  F    7.294000000  -1.054000000   0.210000000
  F    8.355000000  -2.725000000   1.113000000
