18
charge=0 charge_a=0 charge_b=0 selection_a=1-9 selection_b=10-18 scaling=1.25 benchmark_Eint=-3.154 benchmark_unit=kcal/mol group=Se
  C   -3.898000000  -0.757000000   0.489000000
  C   -3.713000000  -1.696000000  -0.579000000
  C   -2.966000000  -1.065000000  -1.515000000
  O   -2.672000000   0.203000000  -1.105000000
  C   -3.249000000   0.372000000   0.121000000
  H   -4.442000000  -0.910000000   1.404000000
  H   -4.089000000  -2.701000000  -0.636000000
  H   -3.100000000   1.330000000   0.582000000
  H   -2.572000000  -1.352000000  -2.471000000
 Se    1.050500000   0.634250000  -0.838750000
  C    0.774500000  -0.788750000   0.363250000
  C    1.901500000  -1.220750000   0.937250000
  C    3.140500000  -0.529750000   0.545250000
  O    4.272500000  -0.753750000   0.937250000
  N    2.830500000   0.455250000  -0.373750000
  H    1.946500000  -2.025750000   1.652250000
  H    3.555500000   1.037250000  -0.759750000
  H   -0.226500000  -1.156750000   0.512250000
