19
charge=0 charge_a=0 charge_b=0 selection_a=1-12 selection_b=13-19 scaling=0.9 benchmark_Eint=-7.920 benchmark_unit=kcal/mol group=Se
  C    4.486000000  -0.540000000  -0.445000000
  C    4.059000000   0.706000000  -0.883000000
  C    2.919000000   1.274000000  -0.361000000
  N    2.191000000   0.634000000   0.594000000
  C    2.594000000  -0.591000000   1.030000000
  C    3.730000000  -1.185000000   0.525000000
  O    1.124000000   1.173000000   1.068000000
  H    2.519000000   2.231000000  -0.650000000
  H    1.953000000  -1.026000000   1.777000000
  H    4.605000000   1.251000000  -1.638000000
  H    4.011000000  -2.157000000   0.900000000
  H    5.377000000  -0.996000000  -0.848000000
 Se   -0.671500000  -0.269700000   0.030300000
  C   -2.082500000  -1.280700000  -0.626700000
  N   -2.935500000  -1.931700000  -1.054700000
  C   -1.780500000   0.935300000   1.119300000
  H   -1.065500000   1.601300000   1.588300000
  H   -2.319500000   0.356300000   1.859300000
  H   -2.459500000   1.479300000   0.473300000
