13
charge=0 charge_a=0 charge_b=0 selection_a=1-10 selection_b=11-13 scaling=0.95 benchmark_Eint=-10.548 benchmark_unit=kcal/mol group=Se
  C    1.044000000   2.470000000  -0.130000000
  C   -0.450000000   2.364000000  -0.005000000
  C   -1.225000000   3.651000000   0.084000000
  O   -1.033000000   1.295000000   0.010000000
  H    1.276000000   2.702000000  -1.172000000
  H    1.430000000   3.290000000   0.474000000
  H    1.526000000   1.537000000   0.138000000
  H   -2.290000000   3.464000000  -0.006000000
  H   -0.893000000   4.350000000  -0.684000000
  H   -1.019000000   4.121000000   1.048000000
 Se   -0.285350000  -0.961250000  -0.219900000
  F    1.026650000  -0.475250000   0.854100000
  F    0.316650000  -2.623250000  -0.358900000
