20
charge=0 charge_a=0 charge_b=0 selection_a=1-12 selection_b=13-20 scaling=0.9 benchmark_Eint=-4.705 benchmark_unit=kcal/mol group=Se
  N    2.584000000   0.780000000  -0.138000000
  C    2.616000000  -0.538000000  -0.471000000
  C    3.792000000  -1.251000000  -0.447000000
  C    4.980000000  -0.633000000  -0.079000000
  C    4.933000000   0.714000000   0.259000000
  C    3.740000000   1.398000000   0.225000000
  O    1.476000000   1.424000000  -0.140000000
  H    3.619000000   2.435000000   0.487000000
  H    1.654000000  -0.948000000  -0.728000000
  H    5.823000000   1.247000000   0.558000000
  H    3.766000000  -2.297000000  -0.715000000
  H    5.909000000  -1.181000000  -0.053000000
  N    1.968200000   0.204200000   2.459000000
  C    2.019200000  -0.262800000   3.677000000
  C    0.959200000   0.025200000   4.587000000
  C   -0.011800000   0.792200000   4.023000000
 Se    0.430200000   1.170200000   2.254000000
  H    2.881200000  -0.861800000   3.950000000
  H    0.941200000  -0.330800000   5.606000000
  H   -0.913800000   1.146200000   4.494000000
