16
charge=0 charge_a=0 charge_b=0 selection_a=1-12 selection_b=13-16 scaling=0.85 benchmark_Eint=-4.877 benchmark_unit=kcal/mol group=Se
  C    4.508000000   0.422000000  -0.700000000
  C    3.895000000   1.297000000   0.187000000
  C    2.907000000   0.849000000   1.034000000
  N    2.513000000  -0.452000000   1.024000000
  C    3.101000000  -1.320000000   0.158000000
  C    4.092000000  -0.903000000  -0.703000000
  O    1.583000000  -0.857000000   1.817000000
  H    2.374000000   1.466000000   1.737000000
  H    2.721000000  -2.325000000   0.216000000
  H    4.173000000   2.339000000   0.227000000
  H    4.529000000  -1.626000000  -1.374000000
  H    5.281000000   0.762000000  -1.371000000
 Se   -0.542000000  -0.417550000   0.961900000
 Se   -2.602000000   0.051450000   0.265900000
  F   -2.743000000  -0.703550000  -1.361100000
  F    0.419000000   0.950450000   0.285900000
