20
charge=0 charge_a=0 charge_b=0 selection_a=1-12 selection_b=13-20 scaling=0.95 benchmark_Eint=-5.811 benchmark_unit=kcal/mol group=Se
  N    2.584000000   0.780000000  -0.138000000
  C    2.616000000  -0.538000000  -0.471000000
  C    3.792000000  -1.251000000  -0.447000000
  C    4.980000000  -0.633000000  -0.079000000
  C    4.933000000   0.714000000   0.259000000
  C    3.740000000   1.398000000   0.225000000
  O    1.476000000   1.424000000  -0.140000000
  H    3.619000000   2.435000000   0.487000000
  H    1.654000000  -0.948000000  -0.728000000
  H    5.823000000   1.247000000   0.558000000
  H    3.766000000  -2.297000000  -0.715000000
  H    5.909000000  -1.181000000  -0.053000000
  N    1.910100000   0.190100000   2.592000000
  C    1.961100000  -0.276900000   3.810000000
  C    0.901100000   0.011100000   4.720000000
  C   -0.069900000   0.778100000   4.156000000
 Se    0.372100000   1.156100000   2.387000000
  H    2.823100000  -0.875900000   4.083000000
  H    0.883100000  -0.344900000   5.739000000
  H   -0.971900000   1.132100000   4.627000000
