17
charge=0 charge_a=0 charge_b=0 selection_a=1-9 selection_b=10-17 scaling=0.9 benchmark_Eint=-2.186 benchmark_unit=kcal/mol group=Se
  C   -2.124000000  -1.215000000   0.239000000
  O   -1.247000000  -0.185000000   0.070000000
  C   -1.987000000   0.936000000  -0.162000000
  C   -3.307000000   0.636000000  -0.142000000
  C   -3.396000000  -0.770000000   0.120000000
  H   -4.120000000   1.324000000  -0.294000000
  H   -4.290000000  -1.361000000   0.206000000
  H   -1.433000000   1.843000000  -0.316000000
  H   -1.685000000  -2.177000000   0.431000000
 Se    1.379200000  -1.104800000   0.219400000
  C    2.946200000  -1.893800000   0.303400000
  N    3.176200000  -3.236800000   0.736400000
  F    2.020200000  -3.964800000   0.593400000
  F    4.062200000  -3.858800000  -0.151600000
  N    4.195200000  -1.295800000  -0.051600000
  F    4.084200000   0.070200000   0.027400000
  F    5.145200000  -1.600800000   0.930400000
