19
charge=0 charge_a=0 charge_b=0 selection_a=1-10 selection_b=11-19 scaling=0.8 benchmark_Eint=-0.238 benchmark_unit=kcal/mol group=Se
  C    1.320000000   3.498000000  -0.166000000
  C    0.279000000   2.410000000  -0.108000000
  C   -1.128000000   2.828000000   0.238000000
  O    0.564000000   1.253000000  -0.338000000
  H    0.967000000   4.334000000  -0.769000000
  H    1.490000000   3.885000000   0.841000000
  H    2.251000000   3.111000000  -0.567000000
  H   -1.725000000   1.965000000   0.518000000
  H   -1.577000000   3.302000000  -0.638000000
  H   -1.132000000   3.568000000   1.038000000
 Se   -0.835200000  -0.497400000  -0.446000000
  C    0.758800000  -1.312400000   0.129000000
  C    0.646800000  -2.631400000   0.312000000
  C   -0.675200000  -3.218400000   0.041000000
  N   -1.534200000  -2.215400000  -0.359000000
  O   -1.001200000  -4.390400000   0.140000000
  H    1.453800000  -3.269400000   0.636000000
  H   -2.487200000  -2.433400000  -0.596000000
  H    1.623800000  -0.686400000   0.260000000
