10
charge=0 charge_a=0 charge_b=0 selection_a=1-7 selection_b=8-10 scaling=1.0 benchmark_Eint=-2.682 benchmark_unit=kcal/mol group=Se
  C    2.563000000   2.635000000  -0.017000000
  N    1.664000000   1.439000000   0.022000000
  O    0.502000000   1.587000000  -0.303000000
  O    2.169000000   0.389000000   0.382000000
  H    1.985000000   3.485000000  -0.352000000
  H    3.377000000   2.400000000  -0.695000000
  H    2.953000000   2.774000000   0.986000000
 Se    0.078000000  -2.020000000   0.393000000
  C   -0.893000000  -3.436000000   0.464000000
  O   -1.545000000  -4.386000000   0.512000000
