13
charge=0 charge_a=0 charge_b=0 selection_a=1-9 selection_b=10-13 scaling=2.0 benchmark_Eint=-0.222 benchmark_unit=kcal/mol group=Se
  C   -2.302000000  -1.077000000   0.272000000
  O   -1.476000000  -0.003000000   0.116000000
  C   -2.268000000   1.082000000  -0.119000000
  C   -3.571000000   0.718000000  -0.115000000
  C   -3.593000000  -0.692000000   0.140000000
  H   -4.415000000   1.365000000  -0.273000000
  H   -4.457000000  -1.327000000   0.214000000
  H   -1.759000000   2.016000000  -0.265000000
  H   -1.814000000  -2.014000000   0.464000000
 Se    4.602000000  -1.349000000   0.334000000
 Se    6.730000000  -1.860000000   0.641000000
  F    7.298000000  -2.484000000  -0.939000000
  F    3.724000000  -2.872000000   0.702000000
