16
charge=0 charge_a=0 charge_b=0 selection_a=1-12 selection_b=13-16 scaling=1.05 benchmark_Eint=-4.348 benchmark_unit=kcal/mol group=Se
  O    1.789000000  -1.406000000  -1.556000000
  N    2.698000000  -0.798000000  -0.893000000
  C    2.903000000   0.539000000  -1.063000000
  C    3.467000000  -1.474000000   0.008000000
  C    3.872000000   1.208000000  -0.348000000
  C    4.442000000  -0.831000000   0.737000000
  C    4.663000000   0.530000000   0.569000000
  H    2.250000000   0.994000000  -1.786000000
  H    3.233000000  -2.522000000   0.083000000
  H    3.995000000   2.267000000  -0.518000000
  H    5.024000000  -1.410000000   1.438000000
  H    5.423000000   1.044000000   1.136000000
  F   -1.877950000   1.516800000   1.503550000
  F   -3.330950000   0.294800000   0.563550000
 Se   -0.771950000  -0.276200000  -0.263450000
  C   -2.040950000   0.541800000   0.633550000
