16
charge=0 charge_a=0 charge_b=0 selection_a=1-9 selection_b=10-16 scaling=1.0 benchmark_Eint=-4.636 benchmark_unit=kcal/mol group=Se
  C   -2.178000000  -1.334000000  -0.426000000
  O   -1.649000000  -1.235000000   0.827000000
  C   -1.687000000   0.082000000   1.175000000
  C   -2.225000000   0.815000000   0.171000000
  C   -2.546000000  -0.110000000  -0.875000000
  H   -2.379000000   1.879000000   0.170000000
  H   -2.992000000   0.112000000  -1.828000000
  H   -1.300000000   0.323000000   2.147000000
  H   -2.218000000  -2.323000000  -0.842000000
 Se    1.392000000  -2.017000000   0.585000000
  C    3.184000000  -2.416000000   0.388000000
  N    4.301000000  -2.684000000   0.283000000
  C    1.370000000  -0.538000000  -0.718000000
  H    0.348000000  -0.174000000  -0.726000000
  H    1.649000000  -0.918000000  -1.693000000
  H    2.050000000   0.238000000  -0.386000000
