18
charge=0 charge_a=0 charge_b=0 selection_a=1-9 selection_b=10-18 scaling=1.05 benchmark_Eint=-5.244 benchmark_unit=kcal/mol group=Se
  C   -3.898000000  -0.757000000   0.489000000
  C   -3.713000000  -1.696000000  -0.579000000
  C   -2.966000000  -1.065000000  -1.515000000
  O   -2.672000000   0.203000000  -1.105000000
  C   -3.249000000   0.372000000   0.121000000
  H   -4.442000000  -0.910000000   1.404000000
  H   -4.089000000  -2.701000000  -0.636000000
  H   -3.100000000   1.330000000   0.582000000
  H   -2.572000000  -1.352000000  -2.471000000
 Se    0.454900000   0.565250000  -0.881350000
  C    0.178900000  -0.857750000   0.320650000
  C    1.305900000  -1.289750000   0.894650000
  C    2.544900000  -0.598750000   0.502650000
  O    3.676900000  -0.822750000   0.894650000
  N    2.234900000   0.386250000  -0.416350000
  H    1.350900000  -2.094750000   1.609650000
  H    2.959900000   0.968250000  -0.802350000
  H   -0.822100000  -1.225750000   0.469650000
