20
charge=0 charge_a=0 charge_b=0 selection_a=1-12 selection_b=13-20 scaling=0.8 benchmark_Eint=3.626 benchmark_unit=kcal/mol group=Se
  N    2.584000000   0.780000000  -0.138000000
  C    2.616000000  -0.538000000  -0.471000000
  C    3.792000000  -1.251000000  -0.447000000
  C    4.980000000  -0.633000000  -0.079000000
  C    4.933000000   0.714000000   0.259000000
  C    3.740000000   1.398000000   0.225000000
  O    1.476000000   1.424000000  -0.140000000
  H    3.619000000   2.435000000   0.487000000
  H    1.654000000  -0.948000000  -0.728000000
  H    5.823000000   1.247000000   0.558000000
  H    3.766000000  -2.297000000  -0.715000000
  H    5.909000000  -1.181000000  -0.053000000
  N    2.084400000   0.232400000   2.193000000
  C    2.135400000  -0.234600000   3.411000000
  C    1.075400000   0.053400000   4.321000000
  C    0.104400000   0.820400000   3.757000000
 Se    0.546400000   1.198400000   1.988000000
  H    2.997400000  -0.833600000   3.684000000
  H    1.057400000  -0.302600000   5.340000000
  H   -0.797600000   1.174400000   4.228000000
