22
charge=0 charge_a=0 charge_b=0 selection_a=1-12 selection_b=13-22 scaling=1.0 benchmark_Eint=-6.814 benchmark_unit=kcal/mol group=Se
  N    2.139000000   0.930000000  -0.433000000
  C    2.347000000  -0.306000000  -0.969000000
  C    3.453000000  -1.052000000  -0.628000000
  C    4.382000000  -0.558000000   0.278000000
  C    4.155000000   0.700000000   0.821000000
  C    3.040000000   1.423000000   0.461000000
  O    1.104000000   1.611000000  -0.754000000
  H    2.793000000   2.400000000   0.839000000
  H    1.579000000  -0.621000000  -1.654000000
  H    4.842000000   1.134000000   1.533000000
  H    3.574000000  -2.025000000  -1.080000000
  H    5.252000000  -1.134000000   0.552000000
 Se   -0.964000000  -0.084000000   0.647000000
  C   -1.915000000   1.053000000  -0.520000000
  C   -3.241000000   0.873000000  -0.578000000
  H   -3.901000000   1.455000000  -1.204000000
  C   -2.701000000  -0.900000000   1.084000000
  C   -3.787000000  -0.186000000   0.269000000
  O   -4.954000000  -0.504000000   0.353000000
  H   -2.692000000  -1.958000000   0.834000000
  H   -2.909000000  -0.790000000   2.145000000
  H   -1.333000000   1.775000000  -1.069000000
