18
charge=0 charge_a=0 charge_b=0 selection_a=1-9 selection_b=10-18 scaling=0.8 benchmark_Eint=1.670 benchmark_unit=kcal/mol group=Se
  C   -3.898000000  -0.757000000   0.489000000
  C   -3.713000000  -1.696000000  -0.579000000
  C   -2.966000000  -1.065000000  -1.515000000
  O   -2.672000000   0.203000000  -1.105000000
  C   -3.249000000   0.372000000   0.121000000
  H   -4.442000000  -0.910000000   1.404000000
  H   -4.089000000  -2.701000000  -0.636000000
  H   -3.100000000   1.330000000   0.582000000
  H   -2.572000000  -1.352000000  -2.471000000
 Se   -0.289600000   0.479000000  -0.934600000
  C   -0.565600000  -0.944000000   0.267400000
  C    0.561400000  -1.376000000   0.841400000
  C    1.800400000  -0.685000000   0.449400000
  O    2.932400000  -0.909000000   0.841400000
  N    1.490400000   0.300000000  -0.469600000
  H    0.606400000  -2.181000000   1.556400000
  H    2.215400000   0.882000000  -0.855600000
  H   -1.566600000  -1.312000000   0.416400000
