13
charge=0 charge_a=0 charge_b=0 selection_a=1-9 selection_b=10-13 scaling=0.8 benchmark_Eint=3.625 benchmark_unit=kcal/mol group=Se
  C   -2.302000000  -1.077000000   0.272000000
  O   -1.476000000  -0.003000000   0.116000000
  C   -2.268000000   1.082000000  -0.119000000
  C   -3.571000000   0.718000000  -0.115000000
  C   -3.593000000  -0.692000000   0.140000000
  H   -4.415000000   1.365000000  -0.273000000
  H   -4.457000000  -1.327000000   0.214000000
  H   -1.759000000   2.016000000  -0.265000000
  H   -1.814000000  -2.014000000   0.464000000
 Se    0.955200000  -0.541400000   0.203200000
 Se    3.083200000  -1.052400000   0.510200000
  F    3.651200000  -1.676400000  -1.069800000
  F    0.077200000  -2.064400000   0.571200000
