12
charge=0 charge_a=0 charge_b=0 selection_a=1-9 selection_b=10-12 scaling=0.95 benchmark_Eint=-5.922 benchmark_unit=kcal/mol group=Se
  C   -3.087000000   0.615000000  -0.150000000
  C   -3.208000000  -0.815000000  -0.152000000
  C   -2.033000000  -1.301000000   0.306000000
  O   -1.187000000  -0.267000000   0.600000000
  C   -1.847000000   0.895000000   0.309000000
  H   -3.829000000   1.330000000  -0.454000000
  H   -4.060000000  -1.395000000  -0.457000000
  H   -1.299000000   1.801000000   0.481000000
  H   -1.645000000  -2.287000000   0.475000000
 Se    1.323850000  -0.480750000   0.838450000
  F    1.259850000  -0.471750000  -0.911550000
  F    3.074850000  -0.628750000   0.928450000
