20
charge=0 charge_a=0 charge_b=0 selection_a=1-10 selection_b=11-20 scaling=1.25 benchmark_Eint=-2.595 benchmark_unit=kcal/mol group=Se
  C    1.096000000   3.889000000   0.299000000
  C    0.769000000   2.418000000   0.202000000
  C   -0.587000000   2.062000000  -0.359000000
  O    1.555000000   1.570000000   0.558000000
  H    1.116000000   4.328000000  -0.700000000
  H    0.321000000   4.415000000   0.858000000
  H    2.060000000   4.030000000   0.778000000
  H   -0.685000000   0.986000000  -0.460000000
  H   -0.737000000   2.545000000  -1.326000000
  H   -1.368000000   2.438000000   0.305000000
 Se    0.581250000  -2.185000000   1.105500000
  C    0.714250000  -4.069000000   1.012500000
  C    1.811250000  -4.561000000   0.420500000
  C    2.763250000  -3.571000000  -0.082500000
  C    2.310250000  -2.133000000   0.177500000
  O    3.808250000  -3.814000000  -0.650500000
  H    3.031250000  -1.609000000   0.795500000
  H    2.200250000  -1.594000000  -0.757500000
  H    2.014250000  -5.615000000   0.301500000
  H   -0.080750000  -4.665000000   1.434500000
