14
charge=0 charge_a=0 charge_b=0 selection_a=1-4 selection_b=5-14 scaling=1.05 benchmark_Eint=-2.967 benchmark_unit=kcal/mol group=Se
  C   -0.489000000  -2.931000000   0.076000000
 Se   -0.249000000  -1.193000000   0.046000000
  F   -1.621000000  -3.566000000  -0.142000000
  F    0.428000000  -3.841000000   0.320000000
  O    0.003000000   2.048350000  -0.045350000
  C   -0.913000000   2.812350000  -0.247350000
  C   -2.332000000   2.328350000  -0.436350000
  C   -0.694000000   4.305350000  -0.323350000
  H   -0.968000000   4.669350000  -1.315350000
  H   -1.339000000   4.820350000   0.390650000
  H    0.346000000   4.543350000  -0.121350000
  H   -2.368000000   1.243350000  -0.423350000
  H   -2.737000000   2.704350000  -1.377350000
  H   -2.964000000   2.726350000   0.359650000
