20
charge=0 charge_a=0 charge_b=0 selection_a=1-12 selection_b=13-20 scaling=1.1 benchmark_Eint=-5.056 benchmark_unit=kcal/mol group=Se
  N    2.584000000   0.780000000  -0.138000000
  C    2.616000000  -0.538000000  -0.471000000
  C    3.792000000  -1.251000000  -0.447000000
  C    4.980000000  -0.633000000  -0.079000000
  C    4.933000000   0.714000000   0.259000000
  C    3.740000000   1.398000000   0.225000000
  O    1.476000000   1.424000000  -0.140000000
  H    3.619000000   2.435000000   0.487000000
  H    1.654000000  -0.948000000  -0.728000000
  H    5.823000000   1.247000000   0.558000000
  H    3.766000000  -2.297000000  -0.715000000
  H    5.909000000  -1.181000000  -0.053000000
  N    1.735800000   0.147800000   2.991000000
  C    1.786800000  -0.319200000   4.209000000
  C    0.726800000  -0.031200000   5.119000000
  C   -0.244200000   0.735800000   4.555000000
 Se    0.197800000   1.113800000   2.786000000
  H    2.648800000  -0.918200000   4.482000000
  H    0.708800000  -0.387200000   6.138000000
  H   -1.146200000   1.089800000   5.026000000
