19
charge=0 charge_a=0 charge_b=0 selection_a=1-10 selection_b=11-19 scaling=0.9 benchmark_Eint=-6.252 benchmark_unit=kcal/mol group=Se
  C    1.320000000   3.498000000  -0.166000000
  C    0.279000000   2.410000000  -0.108000000
  C   -1.128000000   2.828000000   0.238000000
  O    0.564000000   1.253000000  -0.338000000
  H    0.967000000   4.334000000  -0.769000000
  H    1.490000000   3.885000000   0.841000000
  H    2.251000000   3.111000000  -0.567000000
  H   -1.725000000   1.965000000   0.518000000
  H   -1.577000000   3.302000000  -0.638000000
  H   -1.132000000   3.568000000   1.038000000
 Se   -1.010100000  -0.716200000  -0.459500000
  C    0.583900000  -1.531200000   0.115500000
  C    0.471900000  -2.850200000   0.298500000
  C   -0.850100000  -3.437200000   0.027500000
  N   -1.709100000  -2.434200000  -0.372500000
  O   -1.176100000  -4.609200000   0.126500000
  H    1.278900000  -3.488200000   0.622500000
  H   -2.662100000  -2.652200000  -0.609500000
  H    1.448900000  -0.905200000   0.246500000
