16
charge=0 charge_a=0 charge_b=0 selection_a=1-7 selection_b=8-16 scaling=2.0 benchmark_Eint=-0.842 benchmark_unit=kcal/mol group=Se
  C    2.117000000   2.407000000   0.011000000
  N    1.149000000   1.269000000  -0.052000000
  O   -0.038000000   1.534000000  -0.088000000
  O    1.620000000   0.143000000  -0.039000000
  H    1.615000000   3.296000000  -0.349000000
  H    2.982000000   2.139000000  -0.582000000
  H    2.399000000   2.515000000   1.055000000
 Se   -0.822000000  -5.221000000   0.271000000
  C   -2.486000000  -4.346000000   0.183000000
  C   -3.527000000  -5.184000000   0.235000000
  C   -3.208000000  -6.616000000   0.350000000
  N   -1.834000000  -6.765000000   0.380000000
  O   -3.989000000  -7.550000000   0.412000000
  H   -4.558000000  -4.872000000   0.199000000
  H   -1.425000000  -7.681000000   0.452000000
  H   -2.494000000  -3.273000000   0.100000000
