19
charge=0 charge_a=0 charge_b=0 selection_a=1-12 selection_b=13-19 scaling=0.95 benchmark_Eint=-8.756 benchmark_unit=kcal/mol group=Se
  C    4.486000000  -0.540000000  -0.445000000
  C    4.059000000   0.706000000  -0.883000000
  C    2.919000000   1.274000000  -0.361000000
  N    2.191000000   0.634000000   0.594000000
  C    2.594000000  -0.591000000   1.030000000
  C    3.730000000  -1.185000000   0.525000000
  O    1.124000000   1.173000000   1.068000000
  H    2.519000000   2.231000000  -0.650000000
  H    1.953000000  -1.026000000   1.777000000
  H    4.605000000   1.251000000  -1.638000000
  H    4.011000000  -2.157000000   0.900000000
  H    5.377000000  -0.996000000  -0.848000000
 Se   -0.771250000  -0.349850000  -0.027350000
  C   -2.182250000  -1.360850000  -0.684350000
  N   -3.035250000  -2.011850000  -1.112350000
  C   -1.880250000   0.855150000   1.061650000
  H   -1.165250000   1.521150000   1.530650000
  H   -2.419250000   0.276150000   1.801650000
  H   -2.559250000   1.399150000   0.415650000
