17
charge=0 charge_a=0 charge_b=0 selection_a=1-7 selection_b=8-17 scaling=1.5 benchmark_Eint=-2.340 benchmark_unit=kcal/mol group=Se
  C   -0.203000000  -1.132000000   0.249000000
 Se    1.435000000  -0.252000000  -0.399000000
  C    2.445000000  -1.799000000  -0.522000000
  N    3.102000000  -2.744000000  -0.607000000
  H   -0.920000000  -0.326000000   0.348000000
  H   -0.004000000  -1.600000000   1.205000000
  H   -0.531000000  -1.858000000  -0.486000000
  O   -1.406000000   3.174000000   0.043500000
  C   -1.068000000   4.338000000   0.063500000
  C   -2.067000000   5.451000000  -0.125500000
  C    0.370000000   4.744000000   0.270500000
  H    0.773000000   5.112000000  -0.675500000
  H    0.444000000   5.563000000   0.985500000
  H    0.963000000   3.898000000   0.603500000
  H   -3.037000000   5.047000000  -0.400500000
  H   -1.722000000   6.152000000  -0.886500000
  H   -2.159000000   6.016000000   0.804500000
