20
charge=0 charge_a=0 charge_b=0 selection_a=1-10 selection_b=11-20 scaling=0.85 benchmark_Eint=-1.925 benchmark_unit=kcal/mol group=Se
  C    1.096000000   3.889000000   0.299000000
  C    0.769000000   2.418000000   0.202000000
  C   -0.587000000   2.062000000  -0.359000000
  O    1.555000000   1.570000000   0.558000000
  H    1.116000000   4.328000000  -0.700000000
  H    0.321000000   4.415000000   0.858000000
  H    2.060000000   4.030000000   0.778000000
  H   -0.685000000   0.986000000  -0.460000000
  H   -0.737000000   2.545000000  -1.326000000
  H   -1.368000000   2.438000000   0.305000000
 Se    0.892850000  -0.983400000   0.930300000
  C    1.025850000  -2.867400000   0.837300000
  C    2.122850000  -3.359400000   0.245300000
  C    3.074850000  -2.369400000  -0.257700000
  C    2.621850000  -0.931400000   0.002300000
  O    4.119850000  -2.612400000  -0.825700000
  H    3.342850000  -0.407400000   0.620300000
  H    2.511850000  -0.392400000  -0.932700000
  H    2.325850000  -4.413400000   0.126300000
  H    0.230850000  -3.463400000   1.259300000
