22
charge=0 charge_a=0 charge_b=0 selection_a=1-12 selection_b=13-22 scaling=1.25 benchmark_Eint=-4.348 benchmark_unit=kcal/mol group=Se
  N    2.139000000   0.930000000  -0.433000000
  C    2.347000000  -0.306000000  -0.969000000
  C    3.453000000  -1.052000000  -0.628000000
  C    4.382000000  -0.558000000   0.278000000
  C    4.155000000   0.700000000   0.821000000
  C    3.040000000   1.423000000   0.461000000
  O    1.104000000   1.611000000  -0.754000000
  H    2.793000000   2.400000000   0.839000000
  H    1.579000000  -0.621000000  -1.654000000
  H    4.842000000   1.134000000   1.533000000
  H    3.574000000  -2.025000000  -1.080000000
  H    5.252000000  -1.134000000   0.552000000
 Se   -1.481000000  -0.507750000   0.997250000
  C   -2.432000000   0.629250000  -0.169750000
  C   -3.758000000   0.449250000  -0.227750000
  H   -4.418000000   1.031250000  -0.853750000
  C   -3.218000000  -1.323750000   1.434250000
  C   -4.304000000  -0.609750000   0.619250000
  O   -5.471000000  -0.927750000   0.703250000
  H   -3.209000000  -2.381750000   1.184250000
  H   -3.426000000  -1.213750000   2.495250000
  H   -1.850000000   1.351250000  -0.718750000
