13
charge=0 charge_a=0 charge_b=0 selection_a=1-9 selection_b=10-13 scaling=0.9 benchmark_Eint=-1.804 benchmark_unit=kcal/mol group=Se
  C   -2.123000000  -1.009000000  -0.189000000
  O   -1.428000000   0.143000000   0.029000000
  C   -2.344000000   1.134000000   0.216000000
  C   -3.599000000   0.634000000   0.122000000
  C   -3.454000000  -0.767000000  -0.143000000
  H   -4.515000000   1.187000000   0.226000000
  H   -4.239000000  -1.489000000  -0.279000000
  H   -1.947000000   2.114000000   0.401000000
  H   -1.531000000  -1.889000000  -0.355000000
 Se    1.326900000  -0.494200000  -0.093400000
  C    2.956900000  -1.127200000  -0.214400000
  F    3.288900000  -2.375200000  -0.450400000
  F    4.067900000  -0.439200000  -0.085400000
