17
charge=0 charge_a=0 charge_b=0 selection_a=1-7 selection_b=8-17 scaling=1.0 benchmark_Eint=-6.150 benchmark_unit=kcal/mol group=Se
  C   -0.203000000  -1.132000000   0.249000000
 Se    1.435000000  -0.252000000  -0.399000000
  C    2.445000000  -1.799000000  -0.522000000
  N    3.102000000  -2.744000000  -0.607000000
  H   -0.920000000  -0.326000000   0.348000000
  H   -0.004000000  -1.600000000   1.205000000
  H   -0.531000000  -1.858000000  -0.486000000
  O   -0.459000000   2.032000000  -0.104000000
  C   -0.121000000   3.196000000  -0.084000000
  C   -1.120000000   4.309000000  -0.273000000
  C    1.317000000   3.602000000   0.123000000
  H    1.720000000   3.970000000  -0.823000000
  H    1.391000000   4.421000000   0.838000000
  H    1.910000000   2.756000000   0.456000000
  H   -2.090000000   3.905000000  -0.548000000
  H   -0.775000000   5.010000000  -1.034000000
  H   -1.212000000   4.874000000   0.657000000
