19
charge=0 charge_a=0 charge_b=0 selection_a=1-10 selection_b=11-19 scaling=0.85 benchmark_Eint=-4.186 benchmark_unit=kcal/mol group=Se
  C    1.320000000   3.498000000  -0.166000000
  C    0.279000000   2.410000000  -0.108000000
  C   -1.128000000   2.828000000   0.238000000
  O    0.564000000   1.253000000  -0.338000000
  H    0.967000000   4.334000000  -0.769000000
  H    1.490000000   3.885000000   0.841000000
  H    2.251000000   3.111000000  -0.567000000
  H   -1.725000000   1.965000000   0.518000000
  H   -1.577000000   3.302000000  -0.638000000
  H   -1.132000000   3.568000000   1.038000000
 Se   -0.922650000  -0.606800000  -0.452750000
  C    0.671350000  -1.421800000   0.122250000
  C    0.559350000  -2.740800000   0.305250000
  C   -0.762650000  -3.327800000   0.034250000
  N   -1.621650000  -2.324800000  -0.365750000
  O   -1.088650000  -4.499800000   0.133250000
  H    1.366350000  -3.378800000   0.629250000
  H   -2.574650000  -2.542800000  -0.602750000
  H    1.536350000  -0.795800000   0.253250000
