17
charge=0 charge_a=0 charge_b=0 selection_a=1-7 selection_b=8-17 scaling=1.1 benchmark_Eint=-5.549 benchmark_unit=kcal/mol group=Se
  C   -0.203000000  -1.132000000   0.249000000
 Se    1.435000000  -0.252000000  -0.399000000
  C    2.445000000  -1.799000000  -0.522000000
  N    3.102000000  -2.744000000  -0.607000000
  H   -0.920000000  -0.326000000   0.348000000
  H   -0.004000000  -1.600000000   1.205000000
  H   -0.531000000  -1.858000000  -0.486000000
  O   -0.648400000   2.260400000  -0.074500000
  C   -0.310400000   3.424400000  -0.054500000
  C   -1.309400000   4.537400000  -0.243500000
  C    1.127600000   3.830400000   0.152500000
  H    1.530600000   4.198400000  -0.793500000
  H    1.201600000   4.649400000   0.867500000
  H    1.720600000   2.984400000   0.485500000
  H   -2.279400000   4.133400000  -0.518500000
  H   -0.964400000   5.238400000  -1.004500000
  H   -1.401400000   5.102400000   0.686500000
