13
charge=0 charge_a=0 charge_b=0 selection_a=1-9 selection_b=10-13 scaling=2.0 benchmark_Eint=-0.123 benchmark_unit=kcal/mol group=Se
  C   -2.123000000  -1.009000000  -0.189000000
  O   -1.428000000   0.143000000   0.029000000
  C   -2.344000000   1.134000000   0.216000000
  C   -3.599000000   0.634000000   0.122000000
  C   -3.454000000  -0.767000000  -0.143000000
  H   -4.515000000   1.187000000   0.226000000
  H   -4.239000000  -1.489000000  -0.279000000
  H   -1.947000000   2.114000000   0.401000000
  H   -1.531000000  -1.889000000  -0.355000000
 Se    4.694000000  -1.273000000  -0.243000000
  C    6.324000000  -1.906000000  -0.364000000
  F    6.656000000  -3.154000000  -0.600000000
  F    7.435000000  -1.218000000  -0.235000000
