20
charge=0 charge_a=0 charge_b=0 selection_a=1-10 selection_b=11-20 scaling=0.9 benchmark_Eint=-3.449 benchmark_unit=kcal/mol group=Se
  C    1.096000000   3.889000000   0.299000000
  C    0.769000000   2.418000000   0.202000000
  C   -0.587000000   2.062000000  -0.359000000
  O    1.555000000   1.570000000   0.558000000
  H    1.116000000   4.328000000  -0.700000000
  H    0.321000000   4.415000000   0.858000000
  H    2.060000000   4.030000000   0.778000000
  H   -0.685000000   0.986000000  -0.460000000
  H   -0.737000000   2.545000000  -1.326000000
  H   -1.368000000   2.438000000   0.305000000
 Se    0.853900000  -1.133600000   0.952200000
  C    0.986900000  -3.017600000   0.859200000
  C    2.083900000  -3.509600000   0.267200000
  C    3.035900000  -2.519600000  -0.235800000
  C    2.582900000  -1.081600000   0.024200000
  O    4.080900000  -2.762600000  -0.803800000
  H    3.303900000  -0.557600000   0.642200000
  H    2.472900000  -0.542600000  -0.910800000
  H    2.286900000  -4.563600000   0.148200000
  H    0.191900000  -3.613600000   1.281200000
