10
charge=0 charge_a=0 charge_b=0 selection_a=1-7 selection_b=8-10 scaling=1.0 benchmark_Eint=-7.604 benchmark_unit=kcal/mol group=Se
  C    2.421000000   2.396000000  -0.004000000
  N    1.373000000   1.336000000  -0.059000000
  O    0.208000000   1.708000000   0.026000000
  O    1.722000000   0.177000000  -0.162000000
  H    2.079000000   3.230000000  -0.606000000
  H    3.349000000   1.969000000  -0.363000000
  H    2.504000000   2.698000000   1.037000000
 Se   -1.384000000  -0.399000000   0.022000000
  F   -2.593000000   0.858000000   0.188000000
  F   -2.554000000  -1.721000000   0.046000000
