19
charge=0 charge_a=0 charge_b=0 selection_a=1-10 selection_b=11-19 scaling=1.05 benchmark_Eint=-7.040 benchmark_unit=kcal/mol group=Se
  C    1.320000000   3.498000000  -0.166000000
  C    0.279000000   2.410000000  -0.108000000
  C   -1.128000000   2.828000000   0.238000000
  O    0.564000000   1.253000000  -0.338000000
  H    0.967000000   4.334000000  -0.769000000
  H    1.490000000   3.885000000   0.841000000
  H    2.251000000   3.111000000  -0.567000000
  H   -1.725000000   1.965000000   0.518000000
  H   -1.577000000   3.302000000  -0.638000000
  H   -1.132000000   3.568000000   1.038000000
 Se   -1.272450000  -1.044400000  -0.479750000
  C    0.321550000  -1.859400000   0.095250000
  C    0.209550000  -3.178400000   0.278250000
  C   -1.112450000  -3.765400000   0.007250000
  N   -1.971450000  -2.762400000  -0.392750000
  O   -1.438450000  -4.937400000   0.106250000
  H    1.016550000  -3.816400000   0.602250000
  H   -2.924450000  -2.980400000  -0.629750000
  H    1.186550000  -1.233400000   0.226250000
