20
charge=0 charge_a=0 charge_b=0 selection_a=1-12 selection_b=13-20 scaling=0.85 benchmark_Eint=-1.931 benchmark_unit=kcal/mol group=Se
  N    2.584000000   0.780000000  -0.138000000
  C    2.616000000  -0.538000000  -0.471000000
  C    3.792000000  -1.251000000  -0.447000000
  C    4.980000000  -0.633000000  -0.079000000
  C    4.933000000   0.714000000   0.259000000
  C    3.740000000   1.398000000   0.225000000
  O    1.476000000   1.424000000  -0.140000000
  H    3.619000000   2.435000000   0.487000000
  H    1.654000000  -0.948000000  -0.728000000
  H    5.823000000   1.247000000   0.558000000
  H    3.766000000  -2.297000000  -0.715000000
  H    5.909000000  -1.181000000  -0.053000000
  N    2.026300000   0.218300000   2.326000000
  C    2.077300000  -0.248700000   3.544000000
  C    1.017300000   0.039300000   4.454000000
  C    0.046300000   0.806300000   3.890000000
 Se    0.488300000   1.184300000   2.121000000
  H    2.939300000  -0.847700000   3.817000000
  H    0.999300000  -0.316700000   5.473000000
  H   -0.855700000   1.160300000   4.361000000
