16
charge=0 charge_a=0 charge_b=0 selection_a=1-12 selection_b=13-16 scaling=1.5 benchmark_Eint=-1.208 benchmark_unit=kcal/mol group=Se
  O    1.789000000  -1.406000000  -1.556000000
  N    2.698000000  -0.798000000  -0.893000000
  C    2.903000000   0.539000000  -1.063000000
  C    3.467000000  -1.474000000   0.008000000
  C    3.872000000   1.208000000  -0.348000000
  C    4.442000000  -0.831000000   0.737000000
  C    4.663000000   0.530000000   0.569000000
  H    2.250000000   0.994000000  -1.786000000
  H    3.233000000  -2.522000000   0.083000000
  H    3.995000000   2.267000000  -0.518000000
  H    5.024000000  -1.410000000   1.438000000
  H    5.423000000   1.044000000   1.136000000
  F   -2.975500000   2.001000000   2.057500000
  F   -4.428500000   0.779000000   1.117500000
 Se   -1.869500000   0.208000000   0.290500000
  C   -3.138500000   1.026000000   1.187500000
