14
charge=0 charge_a=0 charge_b=0 selection_a=1-4 selection_b=5-14 scaling=0.95 benchmark_Eint=-3.008 benchmark_unit=kcal/mol group=Se
  C   -0.489000000  -2.931000000   0.076000000
 Se   -0.249000000  -1.193000000   0.046000000
  F   -1.621000000  -3.566000000  -0.142000000
  F    0.428000000  -3.841000000   0.320000000
  O   -0.021000000   1.739650000  -0.036650000
  C   -0.937000000   2.503650000  -0.238650000
  C   -2.356000000   2.019650000  -0.427650000
  C   -0.718000000   3.996650000  -0.314650000
  H   -0.992000000   4.360650000  -1.306650000
  H   -1.363000000   4.511650000   0.399350000
  H    0.322000000   4.234650000  -0.112650000
  H   -2.392000000   0.934650000  -0.414650000
  H   -2.761000000   2.395650000  -1.368650000
  H   -2.988000000   2.417650000   0.368350000
