14
charge=0 charge_a=0 charge_b=0 selection_a=1-4 selection_b=5-14 scaling=0.9 benchmark_Eint=-2.415 benchmark_unit=kcal/mol group=Se
  C   -0.489000000  -2.931000000   0.076000000
 Se   -0.249000000  -1.193000000   0.046000000
  F   -1.621000000  -3.566000000  -0.142000000
  F    0.428000000  -3.841000000   0.320000000
  O   -0.033000000   1.585300000  -0.032300000
  C   -0.949000000   2.349300000  -0.234300000
  C   -2.368000000   1.865300000  -0.423300000
  C   -0.730000000   3.842300000  -0.310300000
  H   -1.004000000   4.206300000  -1.302300000
  H   -1.375000000   4.357300000   0.403700000
  H    0.310000000   4.080300000  -0.108300000
  H   -2.404000000   0.780300000  -0.410300000
  H   -2.773000000   2.241300000  -1.364300000
  H   -3.000000000   2.263300000   0.372700000
