14
charge=0 charge_a=0 charge_b=0 selection_a=1-10 selection_b=11-14 scaling=1.5 benchmark_Eint=-2.388 benchmark_unit=kcal/mol group=P
  N   -1.330000000  -0.078000000   0.000000000
  N   -4.110000000  -0.004000000   0.000000000
  C   -2.052000000  -1.195000000   0.000000000
  C   -3.442000000  -1.155000000   0.000000000
  C   -1.991000000   1.076000000   0.000000000
  C   -3.381000000   1.109000000   0.000000000
  H   -1.514000000  -2.134000000   0.000000000
  H   -4.023000000  -2.067000000   0.000000000
  H   -1.398000000   1.980000000   0.000000000
  H   -3.913000000   2.051000000   0.000000000
  P    2.547500000   0.250500000  -0.001500000
  F    4.173500000   0.042500000  -0.001500000
  H    2.269500000  -0.683500000  -1.031500000
  H    2.269500000  -0.683500000   1.030500000
