18
charge=0 charge_a=0 charge_b=0 selection_a=1-13 selection_b=14-18 scaling=1.5 benchmark_Eint=-5.294 benchmark_unit=kcal/mol group=P
  N    0.071000000   0.063000000  -1.325000000
  C   -0.628000000  -1.159000000  -1.722000000
  C   -0.656000000   1.255000000  -1.764000000
  C    1.449000000   0.062000000  -1.811000000
  H   -1.637000000  -1.150000000  -1.318000000
  H   -0.100000000  -2.025000000  -1.328000000
  H   -0.685000000  -1.248000000  -2.812000000
  H   -1.651000000   1.254000000  -1.326000000
  H   -0.750000000   1.282000000  -2.856000000
  H   -0.129000000   2.146000000  -1.435000000
  H    1.948000000   0.976000000  -1.500000000
  H    1.488000000  -0.009000000  -2.904000000
  H    1.981000000  -0.790000000  -1.390000000
 Br    0.349000000  -0.416000000   4.659000000
  F   -1.275000000  -0.055000000   2.234000000
  N    1.459000000   2.317000000   2.093000000
  C    0.941000000   1.300000000   2.249000000
  P    0.290000000  -0.381000000   2.338000000
