21
charge=0 charge_a=0 charge_b=0 selection_a=1-10 selection_b=11-21 scaling=0.95 benchmark_Eint=-7.316 benchmark_unit=kcal/mol group=P
  N   -1.408000000  -0.260000000   0.040000000
  N   -4.150000000   0.211000000   0.125000000
  C   -2.285000000  -1.260000000   0.001000000
  C   -3.653000000  -1.021000000   0.043000000
  C   -1.899000000   0.973000000   0.120000000
  C   -3.268000000   1.206000000   0.164000000
  H   -1.889000000  -2.264000000  -0.064000000
  H   -4.360000000  -1.840000000   0.010000000
  H   -1.186000000   1.788000000   0.149000000
  H   -3.658000000   2.214000000   0.231000000
  F    0.362850000  -2.208000000   1.164150000
  C    1.182850000  -1.168000000   1.384150000
  F    1.827850000  -0.769000000  -2.631850000
  F    0.176850000  -1.880000000  -1.769850000
  F    0.682850000  -0.454000000   2.408150000
  F    2.361850000  -1.660000000   1.772150000
  F    2.208850000  -2.374000000  -1.221850000
  N    4.141850000   0.596000000  -0.060850000
  C    1.383850000  -1.360000000  -1.509850000
  C    3.041850000   0.257000000  -0.090850000
  P    1.273850000  -0.013000000  -0.152850000
