18
charge=0 charge_a=0 charge_b=0 selection_a=1-13 selection_b=14-18 scaling=0.85 benchmark_Eint=-13.530 benchmark_unit=kcal/mol group=P
  N    0.071000000   0.063000000  -1.325000000
  C   -0.628000000  -1.159000000  -1.722000000
  C   -0.656000000   1.255000000  -1.764000000
  C    1.449000000   0.062000000  -1.811000000
  H   -1.637000000  -1.150000000  -1.318000000
  H   -0.100000000  -2.025000000  -1.328000000
  H   -0.685000000  -1.248000000  -2.812000000
  H   -1.651000000   1.254000000  -1.326000000
  H   -0.750000000   1.282000000  -2.856000000
  H   -0.129000000   2.146000000  -1.435000000
  H    1.948000000   0.976000000  -1.500000000
  H    1.488000000  -0.009000000  -2.904000000
  H    1.981000000  -0.790000000  -1.390000000
 Br    0.254100000  -0.223600000   3.071700000
  F   -1.369900000   0.137400000   0.646700000
  N    1.364100000   2.509400000   0.505700000
  C    0.846100000   1.492400000   0.661700000
  P    0.195100000  -0.188600000   0.750700000
