10
charge=0 charge_a=0 charge_b=0 selection_a=1-6 selection_b=7-10 scaling=1.5 benchmark_Eint=-1.823 benchmark_unit=kcal/mol group=P
  N   -1.307000000   0.232000000  -0.310000000
  C   -3.877000000  -0.009000000  -0.004000000
  C   -2.441000000   0.127000000  -0.176000000
  H   -4.092000000  -0.728000000   0.785000000
  H   -4.333000000  -0.355000000  -0.930000000
  H   -4.313000000   0.951000000   0.266000000
  P    2.764000000  -0.315500000   0.230000000
  F    4.394000000  -0.269500000   0.154000000
  H    2.547000000   1.086500000   0.214000000
  H    2.526000000  -0.432500000  -1.164000000
