13
charge=0 charge_a=0 charge_b=0 selection_a=1-6 selection_b=7-13 scaling=1.25 benchmark_Eint=-5.777 benchmark_unit=kcal/mol group=P
  C   -4.023000000   0.036000000  -1.538000000
  C   -3.282000000  -0.268000000  -0.329000000
  N   -2.655000000  -0.505000000   0.603000000
  H   -4.781000000  -0.724000000  -1.717000000
  H   -3.328000000   0.055000000  -2.378000000
  H   -4.505000000   1.008000000  -1.449000000
  P    0.958750000  -0.560000000   0.485500000
  C    2.723750000  -0.358000000   0.245500000
  N    3.872750000  -0.370000000   0.177500000
  C    0.627750000   1.103000000   1.036500000
  N    0.390750000   2.131000000   1.495500000
  C    0.501750000  -0.356000000  -1.233500000
  N    0.139750000  -0.340000000  -2.325500000
