15
charge=0 charge_a=0 charge_b=0 selection_a=1-10 selection_b=11-15 scaling=0.85 benchmark_Eint=-6.169 benchmark_unit=kcal/mol group=P
  C   -2.058000000   1.474000000   0.064000000
  C   -3.387000000   1.073000000   0.120000000
  N   -3.740000000  -0.203000000  -0.012000000
  C   -2.756000000  -1.078000000  -0.202000000
  C   -1.423000000  -0.686000000  -0.262000000
  N   -1.080000000   0.592000000  -0.128000000
  H   -0.625000000  -1.400000000  -0.415000000
  H   -3.030000000  -2.119000000  -0.310000000
  H   -1.777000000   2.513000000   0.176000000
  H   -4.177000000   1.795000000   0.275000000
  P    0.965100000   1.578850000  -0.160300000
  F    0.504100000   1.854850000  -1.660300000
  C    1.380100000  -0.170150000  -0.326300000
  N    1.559100000  -1.308150000  -0.311300000
 Br    3.117100000   2.303850000  -0.352300000
