11
charge=0 charge_a=0 charge_b=0 selection_a=1-6 selection_b=7-11 scaling=2.0 benchmark_Eint=-0.825 benchmark_unit=kcal/mol group=P
  N   -1.363000000  -0.313000000   1.260000000
  C   -3.314000000   0.102000000  -0.406000000
  C   -2.240000000  -0.133000000   0.540000000
  H   -3.964000000  -0.768000000  -0.463000000
  H   -2.880000000   0.291000000  -1.388000000
  H   -3.901000000   0.966000000  -0.102000000
 Br    6.071000000   0.453000000  -2.098000000
  F    3.973000000   1.573000000  -0.314000000
  N    2.335000000   0.574000000  -3.333000000
  C    3.071000000   0.490000000  -2.451000000
  P    4.117000000   0.153000000  -1.008000000
