24
charge=0 charge_a=0 charge_b=0 selection_a=1-13 selection_b=14-24 scaling=1.1 benchmark_Eint=-7.993 benchmark_unit=kcal/mol group=P
  N    0.094000000   0.127000000  -1.460000000
  C    0.165000000  -1.322000000  -1.585000000
  C   -1.220000000   0.618000000  -1.852000000
  C    1.151000000   0.777000000  -2.224000000
  H   -0.587000000  -1.785000000  -0.947000000
  H    1.146000000  -1.673000000  -1.272000000
  H   -0.009000000  -1.657000000  -2.618000000
  H   -1.985000000   0.169000000  -1.220000000
  H   -1.455000000   0.376000000  -2.898000000
  H   -1.261000000   1.698000000  -1.733000000
  H    1.110000000   1.853000000  -2.068000000
  H    1.059000000   0.579000000  -3.302000000
  H    2.121000000   0.418000000  -1.891000000
  F    2.240400000   0.488700000   0.950800000
  C    1.494400000  -0.118300000   1.884800000
  F   -1.449600000   2.719700000   1.878800000
  F    0.241400000   2.684700000   0.519800000
  F    1.628400000  -1.449300000   1.721800000
  F    2.006400000   0.194700000   3.076800000
  F    0.577400000   2.708700000   2.652800000
  N   -1.160600000   0.001700000   4.471800000
  C   -0.213600000   2.220700000   1.691800000
  C   -0.768600000   0.188700000   3.405800000
  P   -0.363600000   0.310700000   1.661800000
