20
charge=0 charge_a=0 charge_b=0 selection_a=1-13 selection_b=14-20 scaling=2.0 benchmark_Eint=-0.869 benchmark_unit=kcal/mol group=P
  N   -0.023000000   0.129000000  -1.300000000
  C   -0.272000000  -1.269000000  -1.628000000
  C   -1.032000000   1.004000000  -1.884000000
  C    1.329000000   0.540000000  -1.664000000
  H   -1.255000000  -1.559000000  -1.261000000
  H    0.476000000  -1.895000000  -1.147000000
  H   -0.237000000  -1.448000000  -2.710000000
  H   -2.017000000   0.716000000  -1.519000000
  H   -1.037000000   0.948000000  -2.980000000
  H   -0.839000000   2.032000000  -1.588000000
  H    1.493000000   1.567000000  -1.349000000
  H    1.497000000   0.471000000  -2.746000000
  H    2.050000000  -0.096000000  -1.156000000
  F    0.480000000   3.039000000   6.058000000
  F    1.799000000   1.063000000   5.946000000
  P   -0.807000000   0.421000000   3.684000000
  F    0.557000000  -0.401000000   3.704000000
  F   -0.199000000   1.873000000   3.443000000
  P    0.554000000   1.616000000   6.777000000
  S   -1.068000000   0.584000000   5.885000000
