20
charge=0 charge_a=0 charge_b=0 selection_a=1-13 selection_b=14-20 scaling=0.9 benchmark_Eint=-11.299 benchmark_unit=kcal/mol group=P
  N   -0.023000000   0.129000000  -1.300000000
  C   -0.272000000  -1.269000000  -1.628000000
  C   -1.032000000   1.004000000  -1.884000000
  C    1.329000000   0.540000000  -1.664000000
  H   -1.255000000  -1.559000000  -1.261000000
  H    0.476000000  -1.895000000  -1.147000000
  H   -0.237000000  -1.448000000  -2.710000000
  H   -2.017000000   0.716000000  -1.519000000
  H   -1.037000000   0.948000000  -2.980000000
  H   -0.839000000   2.032000000  -1.588000000
  H    1.493000000   1.567000000  -1.349000000
  H    1.497000000   0.471000000  -2.746000000
  H    2.050000000  -0.096000000  -1.156000000
  F    0.911200000   2.878400000   3.316800000
  F    2.230200000   0.902400000   3.204800000
  P   -0.375800000   0.260400000   0.942800000
  F    0.988200000  -0.561600000   0.962800000
  F    0.232200000   1.712400000   0.701800000
  P    0.985200000   1.455400000   4.035800000
  S   -0.636800000   0.423400000   3.143800000
