17
charge=0 charge_a=0 charge_b=0 selection_a=1-10 selection_b=11-17 scaling=0.9 benchmark_Eint=-5.262 benchmark_unit=kcal/mol group=P
  N   -1.301000000   0.002000000  -0.045000000
  N   -4.079000000  -0.111000000   0.027000000
  C   -1.947000000  -1.159000000  -0.090000000
  C   -3.336000000  -1.212000000  -0.053000000
  C   -2.037000000   1.106000000   0.036000000
  C   -3.425000000   1.047000000   0.072000000
  H   -1.346000000  -2.057000000  -0.157000000
  H   -3.856000000  -2.160000000  -0.090000000
  H   -1.510000000   2.051000000   0.071000000
  H   -4.018000000   1.950000000   0.137000000
  F    3.420700000  -2.622500000  -1.272000000
  F    3.007700000  -2.616500000   1.070000000
  P    1.167700000   0.096500000  -0.063000000
  F    0.909700000  -0.561500000   1.358000000
  F    0.869700000  -1.189500000  -0.946000000
  P    4.045700000  -1.979500000   0.044000000
  S    3.356700000   0.033500000  -0.084000000
