17
charge=0 charge_a=0 charge_b=0 selection_a=1-11 selection_b=12-17 scaling=1.1 benchmark_Eint=-4.013 benchmark_unit=kcal/mol group=P
  C    1.119000000  -0.662000000   1.919000000
  P    1.073000000  -0.074000000   0.099000000
  C    2.818000000   0.272000000  -0.015000000
  N    3.907000000   0.624000000  -0.144000000
  F   -0.091000000  -1.111000000   2.278000000
  F    1.412000000   0.404000000   2.685000000
  F    2.010000000  -1.621000000   2.193000000
  C    1.151000000  -1.795000000  -0.748000000
  F    2.292000000  -2.465000000  -0.559000000
  F    1.004000000  -1.605000000  -2.070000000
  F    0.146000000  -2.567000000  -0.319000000
  N   -2.359000000  -0.548100000  -0.150700000
  C   -3.457000000  -0.766100000   0.097300000
  C   -4.847000000  -1.047100000   0.414300000
  H   -4.941000000  -1.326100000   1.462300000
  H   -5.212000000  -1.866100000  -0.202700000
  H   -5.459000000  -0.166100000   0.227300000
