17
charge=0 charge_a=0 charge_b=0 selection_a=1-10 selection_b=11-17 scaling=1.0 benchmark_Eint=-11.619 benchmark_unit=kcal/mol group=P
  C   -3.310000000   0.909000000   0.491000000
  N   -4.086000000  -0.050000000  -0.009000000
  C   -3.469000000  -1.077000000  -0.584000000
  C   -2.083000000  -1.153000000  -0.665000000
  N   -1.315000000  -0.188000000  -0.165000000
  C   -1.926000000   0.843000000   0.415000000
  H   -1.586000000  -1.993000000  -1.131000000
  H   -4.088000000  -1.865000000  -0.992000000
  H   -1.303000000   1.624000000   0.831000000
  H   -3.799000000   1.749000000   0.965000000
  P    1.361000000   0.120000000  -0.332000000
  C    3.164000000   0.048000000  -0.274000000
  N    4.308000000   0.156000000  -0.330000000
  C    1.125000000  -1.537000000  -0.943000000
  N    0.896000000  -2.544000000  -1.450000000
  C    1.110000000  -0.150000000   1.413000000
  N    0.902000000  -0.176000000   2.544000000
