20
charge=0 charge_a=0 charge_b=0 selection_a=1-13 selection_b=14-20 scaling=0.95 benchmark_Eint=-11.969 benchmark_unit=kcal/mol group=P
  N   -0.023000000   0.129000000  -1.300000000
  C   -0.272000000  -1.269000000  -1.628000000
  C   -1.032000000   1.004000000  -1.884000000
  C    1.329000000   0.540000000  -1.664000000
  H   -1.255000000  -1.559000000  -1.261000000
  H    0.476000000  -1.895000000  -1.147000000
  H   -0.237000000  -1.448000000  -2.710000000
  H   -2.017000000   0.716000000  -1.519000000
  H   -1.037000000   0.948000000  -2.980000000
  H   -0.839000000   2.032000000  -1.588000000
  H    1.493000000   1.567000000  -1.349000000
  H    1.497000000   0.471000000  -2.746000000
  H    2.050000000  -0.096000000  -1.156000000
  F    0.891600000   2.885700000   3.441400000
  F    2.210600000   0.909700000   3.329400000
  P   -0.395400000   0.267700000   1.067400000
  F    0.968600000  -0.554300000   1.087400000
  F    0.212600000   1.719700000   0.826400000
  P    0.965600000   1.462700000   4.160400000
  S   -0.656400000   0.430700000   3.268400000
