20
charge=0 charge_a=0 charge_b=0 selection_a=1-13 selection_b=14-20 scaling=0.8 benchmark_Eint=-5.967 benchmark_unit=kcal/mol group=P
  N    0.006000000   0.144000000  -1.293000000
  C   -0.083000000  -1.274000000  -1.640000000
  C   -1.175000000   0.867000000  -1.762000000
  C    1.237000000   0.741000000  -1.813000000
  H   -0.969000000  -1.709000000  -1.179000000
  H    0.796000000  -1.799000000  -1.276000000
  H   -0.152000000  -1.417000000  -2.724000000
  H   -2.068000000   0.448000000  -1.302000000
  H   -1.280000000   0.796000000  -2.851000000
  H   -1.097000000   1.916000000  -1.488000000
  H    1.295000000   1.782000000  -1.507000000
  H    1.268000000   0.695000000  -2.908000000
  H    2.097000000   0.208000000  -1.417000000
  N   -0.491600000   0.176400000   3.697800000
  N    0.279400000   2.967400000   0.298800000
  C    0.132400000   1.848400000   0.523800000
  N    2.372400000  -1.138600000   0.533800000
  C    1.372400000  -0.584600000   0.662800000
  C   -0.295600000   0.211400000   2.563800000
  P   -0.263600000   0.122400000   0.743800000
