24
charge=0 charge_a=0 charge_b=0 selection_a=1-13 selection_b=14-24 scaling=0.85 benchmark_Eint=-4.634 benchmark_unit=kcal/mol group=P
  N    0.094000000   0.127000000  -1.460000000
  C    0.165000000  -1.322000000  -1.585000000
  C   -1.220000000   0.618000000  -1.852000000
  C    1.151000000   0.777000000  -2.224000000
  H   -0.587000000  -1.785000000  -0.947000000
  H    1.146000000  -1.673000000  -1.272000000
  H   -0.009000000  -1.657000000  -2.618000000
  H   -1.985000000   0.169000000  -1.220000000
  H   -1.455000000   0.376000000  -2.898000000
  H   -1.261000000   1.698000000  -1.733000000
  H    1.110000000   1.853000000  -2.068000000
  H    1.059000000   0.579000000  -3.302000000
  H    2.121000000   0.418000000  -1.891000000
  F    2.344400000   0.446950000   0.241300000
  C    1.598400000  -0.160050000   1.175300000
  F   -1.345600000   2.677950000   1.169300000
  F    0.345400000   2.642950000  -0.189700000
  F    1.732400000  -1.491050000   1.012300000
  F    2.110400000   0.152950000   2.367300000
  F    0.681400000   2.666950000   1.943300000
  N   -1.056600000  -0.040050000   3.762300000
  C   -0.109600000   2.178950000   0.982300000
  C   -0.664600000   0.146950000   2.696300000
  P   -0.259600000   0.268950000   0.952300000
