20
charge=0 charge_a=0 charge_b=0 selection_a=1-13 selection_b=14-20 scaling=0.85 benchmark_Eint=-9.075 benchmark_unit=kcal/mol group=P
  N   -0.023000000   0.129000000  -1.300000000
  C   -0.272000000  -1.269000000  -1.628000000
  C   -1.032000000   1.004000000  -1.884000000
  C    1.329000000   0.540000000  -1.664000000
  H   -1.255000000  -1.559000000  -1.261000000
  H    0.476000000  -1.895000000  -1.147000000
  H   -0.237000000  -1.448000000  -2.710000000
  H   -2.017000000   0.716000000  -1.519000000
  H   -1.037000000   0.948000000  -2.980000000
  H   -0.839000000   2.032000000  -1.588000000
  H    1.493000000   1.567000000  -1.349000000
  H    1.497000000   0.471000000  -2.746000000
  H    2.050000000  -0.096000000  -1.156000000
  F    0.930800000   2.871100000   3.192200000
  F    2.249800000   0.895100000   3.080200000
  P   -0.356200000   0.253100000   0.818200000
  F    1.007800000  -0.568900000   0.838200000
  F    0.251800000   1.705100000   0.577200000
  P    1.004800000   1.448100000   3.911200000
  S   -0.617200000   0.416100000   3.019200000
