10
charge=0 charge_a=0 charge_b=0 selection_a=1-6 selection_b=7-10 scaling=1.05 benchmark_Eint=-5.041 benchmark_unit=kcal/mol group=P
  N   -1.307000000   0.232000000  -0.310000000
  C   -3.877000000  -0.009000000  -0.004000000
  C   -2.441000000   0.127000000  -0.176000000
  H   -4.092000000  -0.728000000   0.785000000
  H   -4.333000000  -0.355000000  -0.930000000
  H   -4.313000000   0.951000000   0.266000000
  P    1.542700000  -0.151250000   0.068000000
  F    3.172700000  -0.105250000  -0.008000000
  H    1.325700000   1.250750000   0.052000000
  H    1.304700000  -0.268250000  -1.326000000
