11
charge=0 charge_a=0 charge_b=0 selection_a=1-6 selection_b=7-11 scaling=1.0 benchmark_Eint=-6.930 benchmark_unit=kcal/mol group=P
  N   -1.363000000  -0.313000000   1.260000000
  C   -3.314000000   0.102000000  -0.406000000
  C   -2.240000000  -0.133000000   0.540000000
  H   -3.964000000  -0.768000000  -0.463000000
  H   -2.880000000   0.291000000  -1.388000000
  H   -3.901000000   0.966000000  -0.102000000
 Br    3.331000000   0.220000000  -0.964000000
  F    1.233000000   1.340000000   0.820000000
  N   -0.405000000   0.341000000  -2.199000000
  C    0.331000000   0.257000000  -1.317000000
  P    1.377000000  -0.080000000   0.126000000
