20
charge=0 charge_a=0 charge_b=0 selection_a=1-13 selection_b=14-20 scaling=1.5 benchmark_Eint=-5.776 benchmark_unit=kcal/mol group=P
  N    0.006000000   0.144000000  -1.293000000
  C   -0.083000000  -1.274000000  -1.640000000
  C   -1.175000000   0.867000000  -1.762000000
  C    1.237000000   0.741000000  -1.813000000
  H   -0.969000000  -1.709000000  -1.179000000
  H    0.796000000  -1.799000000  -1.276000000
  H   -0.152000000  -1.417000000  -2.724000000
  H   -2.068000000   0.448000000  -1.302000000
  H   -1.280000000   0.796000000  -2.851000000
  H   -1.097000000   1.916000000  -1.488000000
  H    1.295000000   1.782000000  -1.507000000
  H    1.268000000   0.695000000  -2.908000000
  H    2.097000000   0.208000000  -1.417000000
  N   -0.727500000   0.157500000   5.480000000
  N    0.043500000   2.948500000   2.081000000
  C   -0.103500000   1.829500000   2.306000000
  N    2.136500000  -1.157500000   2.316000000
  C    1.136500000  -0.603500000   2.445000000
  C   -0.531500000   0.192500000   4.346000000
  P   -0.499500000   0.103500000   2.526000000
