11
charge=0 charge_a=0 charge_b=0 selection_a=1-6 selection_b=7-11 scaling=1.05 benchmark_Eint=-6.703 benchmark_unit=kcal/mol group=P
  N   -1.363000000  -0.313000000   1.260000000
  C   -3.314000000   0.102000000  -0.406000000
  C   -2.240000000  -0.133000000   0.540000000
  H   -3.964000000  -0.768000000  -0.463000000
  H   -2.880000000   0.291000000  -1.388000000
  H   -3.901000000   0.966000000  -0.102000000
 Br    3.468000000   0.231650000  -1.020700000
  F    1.370000000   1.351650000   0.763300000
  N   -0.268000000   0.352650000  -2.255700000
  C    0.468000000   0.268650000  -1.373700000
  P    1.514000000  -0.068350000   0.069300000
