17
charge=0 charge_a=0 charge_b=0 selection_a=1-10 selection_b=11-17 scaling=2.0 benchmark_Eint=-1.076 benchmark_unit=kcal/mol group=P
  C   -3.310000000   0.909000000   0.491000000
  N   -4.086000000  -0.050000000  -0.009000000
  C   -3.469000000  -1.077000000  -0.584000000
  C   -2.083000000  -1.153000000  -0.665000000
  N   -1.315000000  -0.188000000  -0.165000000
  C   -1.926000000   0.843000000   0.415000000
  H   -1.586000000  -1.993000000  -1.131000000
  H   -4.088000000  -1.865000000  -0.992000000
  H   -1.303000000   1.624000000   0.831000000
  H   -3.799000000   1.749000000   0.965000000
  P    4.037000000   0.428000000  -0.499000000
  C    5.840000000   0.356000000  -0.441000000
  N    6.984000000   0.464000000  -0.497000000
  C    3.801000000  -1.229000000  -1.110000000
  N    3.572000000  -2.236000000  -1.617000000
  C    3.786000000   0.158000000   1.246000000
  N    3.578000000   0.132000000   2.377000000
