17
charge=0 charge_a=0 charge_b=0 selection_a=1-10 selection_b=11-17 scaling=1.1 benchmark_Eint=-10.474 benchmark_unit=kcal/mol group=P
  C   -3.310000000   0.909000000   0.491000000
  N   -4.086000000  -0.050000000  -0.009000000
  C   -3.469000000  -1.077000000  -0.584000000
  C   -2.083000000  -1.153000000  -0.665000000
  N   -1.315000000  -0.188000000  -0.165000000
  C   -1.926000000   0.843000000   0.415000000
  H   -1.586000000  -1.993000000  -1.131000000
  H   -4.088000000  -1.865000000  -0.992000000
  H   -1.303000000   1.624000000   0.831000000
  H   -3.799000000   1.749000000   0.965000000
  P    1.628600000   0.150800000  -0.348700000
  C    3.431600000   0.078800000  -0.290700000
  N    4.575600000   0.186800000  -0.346700000
  C    1.392600000  -1.506200000  -0.959700000
  N    1.163600000  -2.513200000  -1.466700000
  C    1.377600000  -0.119200000   1.396300000
  N    1.169600000  -0.145200000   2.527300000
