13
charge=0 charge_a=0 charge_b=0 selection_a=1-6 selection_b=7-13 scaling=1.1 benchmark_Eint=-7.893 benchmark_unit=kcal/mol group=P
  C   -4.023000000   0.036000000  -1.538000000
  C   -3.282000000  -0.268000000  -0.329000000
  N   -2.655000000  -0.505000000   0.603000000
  H   -4.781000000  -0.724000000  -1.717000000
  H   -3.328000000   0.055000000  -2.378000000
  H   -4.505000000   1.008000000  -1.449000000
  P    0.525100000  -0.553400000   0.499600000
  C    2.290100000  -0.351400000   0.259600000
  N    3.439100000  -0.363400000   0.191600000
  C    0.194100000   1.109600000   1.050600000
  N   -0.042900000   2.137600000   1.509600000
  C    0.068100000  -0.349400000  -1.219400000
  N   -0.293900000  -0.333400000  -2.311400000
