10
charge=0 charge_a=0 charge_b=0 selection_a=1-6 selection_b=7-10 scaling=1.1 benchmark_Eint=-4.712 benchmark_unit=kcal/mol group=P
  N   -1.307000000   0.232000000  -0.310000000
  C   -3.877000000  -0.009000000  -0.004000000
  C   -2.441000000   0.127000000  -0.176000000
  H   -4.092000000  -0.728000000   0.785000000
  H   -4.333000000  -0.355000000  -0.930000000
  H   -4.313000000   0.951000000   0.266000000
  P    1.678400000  -0.169500000   0.086000000
  F    3.308400000  -0.123500000   0.010000000
  H    1.461400000   1.232500000   0.070000000
  H    1.440400000  -0.286500000  -1.308000000
