17
charge=0 charge_a=0 charge_b=0 selection_a=1-10 selection_b=11-17 scaling=1.05 benchmark_Eint=-5.810 benchmark_unit=kcal/mol group=P
  N   -1.301000000   0.002000000  -0.045000000
  N   -4.079000000  -0.111000000   0.027000000
  C   -1.947000000  -1.159000000  -0.090000000
  C   -3.336000000  -1.212000000  -0.053000000
  C   -2.037000000   1.106000000   0.036000000
  C   -3.425000000   1.047000000   0.072000000
  H   -1.346000000  -2.057000000  -0.157000000
  H   -3.856000000  -2.160000000  -0.090000000
  H   -1.510000000   2.051000000   0.071000000
  H   -4.018000000   1.950000000   0.137000000
  F    3.832150000  -2.606750000  -1.275000000
  F    3.419150000  -2.600750000   1.067000000
  P    1.579150000   0.112250000  -0.066000000
  F    1.321150000  -0.545750000   1.355000000
  F    1.281150000  -1.173750000  -0.949000000
  P    4.457150000  -1.963750000   0.041000000
  S    3.768150000   0.049250000  -0.087000000
