11
charge=0 charge_a=0 charge_b=0 selection_a=1-6 selection_b=7-11 scaling=1.25 benchmark_Eint=-4.433 benchmark_unit=kcal/mol group=P
  N   -1.363000000  -0.313000000   1.260000000
  C   -3.314000000   0.102000000  -0.406000000
  C   -2.240000000  -0.133000000   0.540000000
  H   -3.964000000  -0.768000000  -0.463000000
  H   -2.880000000   0.291000000  -1.388000000
  H   -3.901000000   0.966000000  -0.102000000
 Br    4.016000000   0.278250000  -1.247500000
  F    1.918000000   1.398250000   0.536500000
  N    0.280000000   0.399250000  -2.482500000
  C    1.016000000   0.315250000  -1.600500000
  P    2.062000000  -0.021750000  -0.157500000
