15
charge=0 charge_a=0 charge_b=0 selection_a=1-10 selection_b=11-15 scaling=2.0 benchmark_Eint=-0.776 benchmark_unit=kcal/mol group=P
  C   -2.058000000   1.474000000   0.064000000
  C   -3.387000000   1.073000000   0.120000000
  N   -3.740000000  -0.203000000  -0.012000000
  C   -2.756000000  -1.078000000  -0.202000000
  C   -1.423000000  -0.686000000  -0.262000000
  N   -1.080000000   0.592000000  -0.128000000
  H   -0.625000000  -1.400000000  -0.415000000
  H   -3.030000000  -2.119000000  -0.310000000
  H   -1.777000000   2.513000000   0.176000000
  H   -4.177000000   1.795000000   0.275000000
  P    3.732000000   2.914000000  -0.204000000
  F    3.271000000   3.190000000  -1.704000000
  C    4.147000000   1.165000000  -0.370000000
  N    4.326000000   0.027000000  -0.355000000
 Br    5.884000000   3.639000000  -0.396000000
