17
charge=0 charge_a=0 charge_b=0 selection_a=1-13 selection_b=14-17 scaling=0.95 benchmark_Eint=-12.432 benchmark_unit=kcal/mol group=P
  N   -0.012000000   0.078000000  -1.329000000
  C   -0.462000000  -1.254000000  -1.720000000
  C   -0.921000000   1.108000000  -1.819000000
  C    1.359000000   0.326000000  -1.759000000
  H   -1.461000000  -1.427000000  -1.327000000
  H    0.207000000  -2.002000000  -1.299000000
  H   -0.481000000  -1.376000000  -2.810000000
  H   -1.919000000   0.926000000  -1.426000000
  H   -0.968000000   1.126000000  -2.915000000
  H   -0.587000000   2.084000000  -1.470000000
  H    1.681000000   1.304000000  -1.405000000
  H    1.458000000   0.300000000  -2.853000000
  H    2.018000000  -0.427000000  -1.333000000
  P   -0.250450000   0.129300000   1.001350000
  F   -0.076450000   0.231300000   2.643350000
  H    0.474550000   1.316300000   0.727350000
  H    0.870550000  -0.718700000   0.813350000
