24
charge=0 charge_a=0 charge_b=0 selection_a=1-13 selection_b=14-24 scaling=1.05 benchmark_Eint=-8.712 benchmark_unit=kcal/mol group=P
  N    0.094000000   0.127000000  -1.460000000
  C    0.165000000  -1.322000000  -1.585000000
  C   -1.220000000   0.618000000  -1.852000000
  C    1.151000000   0.777000000  -2.224000000
  H   -0.587000000  -1.785000000  -0.947000000
  H    1.146000000  -1.673000000  -1.272000000
  H   -0.009000000  -1.657000000  -2.618000000
  H   -1.985000000   0.169000000  -1.220000000
  H   -1.455000000   0.376000000  -2.898000000
  H   -1.261000000   1.698000000  -1.733000000
  H    1.110000000   1.853000000  -2.068000000
  H    1.059000000   0.579000000  -3.302000000
  H    2.121000000   0.418000000  -1.891000000
  F    2.261200000   0.480350000   0.808900000
  C    1.515200000  -0.126650000   1.742900000
  F   -1.428800000   2.711350000   1.736900000
  F    0.262200000   2.676350000   0.377900000
  F    1.649200000  -1.457650000   1.579900000
  F    2.027200000   0.186350000   2.934900000
  F    0.598200000   2.700350000   2.510900000
  N   -1.139800000  -0.006650000   4.329900000
  C   -0.192800000   2.212350000   1.549900000
  C   -0.747800000   0.180350000   3.263900000
  P   -0.342800000   0.302350000   1.519900000
