10
charge=0 charge_a=0 charge_b=0 selection_a=1-6 selection_b=7-10 scaling=0.85 benchmark_Eint=-2.434 benchmark_unit=kcal/mol group=P
  N   -1.307000000   0.232000000  -0.310000000
  C   -3.877000000  -0.009000000  -0.004000000
  C   -2.441000000   0.127000000  -0.176000000
  H   -4.092000000  -0.728000000   0.785000000
  H   -4.333000000  -0.355000000  -0.930000000
  H   -4.313000000   0.951000000   0.266000000
  P    0.999900000  -0.078250000  -0.004000000
  F    2.629900000  -0.032250000  -0.080000000
  H    0.782900000   1.323750000  -0.020000000
  H    0.761900000  -0.195250000  -1.398000000
