20
charge=0 charge_a=0 charge_b=0 selection_a=1-13 selection_b=14-20 scaling=1.05 benchmark_Eint=-11.034 benchmark_unit=kcal/mol group=P
  N   -0.023000000   0.129000000  -1.300000000
  C   -0.272000000  -1.269000000  -1.628000000
  C   -1.032000000   1.004000000  -1.884000000
  C    1.329000000   0.540000000  -1.664000000
  H   -1.255000000  -1.559000000  -1.261000000
  H    0.476000000  -1.895000000  -1.147000000
  H   -0.237000000  -1.448000000  -2.710000000
  H   -2.017000000   0.716000000  -1.519000000
  H   -1.037000000   0.948000000  -2.980000000
  H   -0.839000000   2.032000000  -1.588000000
  H    1.493000000   1.567000000  -1.349000000
  H    1.497000000   0.471000000  -2.746000000
  H    2.050000000  -0.096000000  -1.156000000
  F    0.852400000   2.900300000   3.690600000
  F    2.171400000   0.924300000   3.578600000
  P   -0.434600000   0.282300000   1.316600000
  F    0.929400000  -0.539700000   1.336600000
  F    0.173400000   1.734300000   1.075600000
  P    0.926400000   1.477300000   4.409600000
  S   -0.695600000   0.445300000   3.517600000
