20
charge=0 charge_a=0 charge_b=0 selection_a=1-13 selection_b=14-20 scaling=1.25 benchmark_Eint=-7.047 benchmark_unit=kcal/mol group=P
  N   -0.023000000   0.129000000  -1.300000000
  C   -0.272000000  -1.269000000  -1.628000000
  C   -1.032000000   1.004000000  -1.884000000
  C    1.329000000   0.540000000  -1.664000000
  H   -1.255000000  -1.559000000  -1.261000000
  H    0.476000000  -1.895000000  -1.147000000
  H   -0.237000000  -1.448000000  -2.710000000
  H   -2.017000000   0.716000000  -1.519000000
  H   -1.037000000   0.948000000  -2.980000000
  H   -0.839000000   2.032000000  -1.588000000
  H    1.493000000   1.567000000  -1.349000000
  H    1.497000000   0.471000000  -2.746000000
  H    2.050000000  -0.096000000  -1.156000000
  F    0.774000000   2.929500000   4.189000000
  F    2.093000000   0.953500000   4.077000000
  P   -0.513000000   0.311500000   1.815000000
  F    0.851000000  -0.510500000   1.835000000
  F    0.095000000   1.763500000   1.574000000
  P    0.848000000   1.506500000   4.908000000
  S   -0.774000000   0.474500000   4.016000000
