13
charge=0 charge_a=0 charge_b=0 selection_a=1-6 selection_b=7-13 scaling=1.05 benchmark_Eint=-8.442 benchmark_unit=kcal/mol group=P
  C   -4.023000000   0.036000000  -1.538000000
  C   -3.282000000  -0.268000000  -0.329000000
  N   -2.655000000  -0.505000000   0.603000000
  H   -4.781000000  -0.724000000  -1.717000000
  H   -3.328000000   0.055000000  -2.378000000
  H   -4.505000000   1.008000000  -1.449000000
  P    0.380550000  -0.551200000   0.504300000
  C    2.145550000  -0.349200000   0.264300000
  N    3.294550000  -0.361200000   0.196300000
  C    0.049550000   1.111800000   1.055300000
  N   -0.187450000   2.139800000   1.514300000
  C   -0.076450000  -0.347200000  -1.214700000
  N   -0.438450000  -0.331200000  -2.306700000
