17
charge=0 charge_a=0 charge_b=0 selection_a=1-11 selection_b=12-17 scaling=0.95 benchmark_Eint=-4.241 benchmark_unit=kcal/mol group=P
  C    1.119000000  -0.662000000   1.919000000
  P    1.073000000  -0.074000000   0.099000000
  C    2.818000000   0.272000000  -0.015000000
  N    3.907000000   0.624000000  -0.144000000
  F   -0.091000000  -1.111000000   2.278000000
  F    1.412000000   0.404000000   2.685000000
  F    2.010000000  -1.621000000   2.193000000
  C    1.151000000  -1.795000000  -0.748000000
  F    2.292000000  -2.465000000  -0.559000000
  F    1.004000000  -1.605000000  -2.070000000
  F    0.146000000  -2.567000000  -0.319000000
  N   -1.891000000  -0.483450000  -0.116650000
  C   -2.989000000  -0.701450000   0.131350000
  C   -4.379000000  -0.982450000   0.448350000
  H   -4.473000000  -1.261450000   1.496350000
  H   -4.744000000  -1.801450000  -0.168650000
  H   -4.991000000  -0.101450000   0.261350000
