15
charge=0 charge_a=0 charge_b=0 selection_a=1-10 selection_b=11-15 scaling=1.05 benchmark_Eint=-9.243 benchmark_unit=kcal/mol group=P
  C   -2.058000000   1.474000000   0.064000000
  C   -3.387000000   1.073000000   0.120000000
  N   -3.740000000  -0.203000000  -0.012000000
  C   -2.756000000  -1.078000000  -0.202000000
  C   -1.423000000  -0.686000000  -0.262000000
  N   -1.080000000   0.592000000  -0.128000000
  H   -0.625000000  -1.400000000  -0.415000000
  H   -3.030000000  -2.119000000  -0.310000000
  H   -1.777000000   2.513000000   0.176000000
  H   -4.177000000   1.795000000   0.275000000
  P    1.446300000   1.811050000  -0.167900000
  F    0.985300000   2.087050000  -1.667900000
  C    1.861300000   0.062050000  -0.333900000
  N    2.040300000  -1.075950000  -0.318900000
 Br    3.598300000   2.536050000  -0.359900000
