10
charge=0 charge_a=0 charge_b=0 selection_a=1-6 selection_b=7-10 scaling=0.8 benchmark_Eint=0.577 benchmark_unit=kcal/mol group=P
  N   -1.307000000   0.232000000  -0.310000000
  C   -3.877000000  -0.009000000  -0.004000000
  C   -2.441000000   0.127000000  -0.176000000
  H   -4.092000000  -0.728000000   0.785000000
  H   -4.333000000  -0.355000000  -0.930000000
  H   -4.313000000   0.951000000   0.266000000
  P    0.864200000  -0.060000000  -0.022000000
  F    2.494200000  -0.014000000  -0.098000000
  H    0.647200000   1.342000000  -0.038000000
  H    0.626200000  -0.177000000  -1.416000000
