17
charge=0 charge_a=0 charge_b=0 selection_a=1-10 selection_b=11-17 scaling=0.95 benchmark_Eint=-11.347 benchmark_unit=kcal/mol group=P
  C   -3.310000000   0.909000000   0.491000000
  N   -4.086000000  -0.050000000  -0.009000000
  C   -3.469000000  -1.077000000  -0.584000000
  C   -2.083000000  -1.153000000  -0.665000000
  N   -1.315000000  -0.188000000  -0.165000000
  C   -1.926000000   0.843000000   0.415000000
  H   -1.586000000  -1.993000000  -1.131000000
  H   -4.088000000  -1.865000000  -0.992000000
  H   -1.303000000   1.624000000   0.831000000
  H   -3.799000000   1.749000000   0.965000000
  P    1.227200000   0.104600000  -0.323650000
  C    3.030200000   0.032600000  -0.265650000
  N    4.174200000   0.140600000  -0.321650000
  C    0.991200000  -1.552400000  -0.934650000
  N    0.762200000  -2.559400000  -1.441650000
  C    0.976200000  -0.165400000   1.421350000
  N    0.768200000  -0.191400000   2.552350000
