11
charge=0 charge_a=0 charge_b=0 selection_a=1-6 selection_b=7-11 scaling=1.1 benchmark_Eint=-6.219 benchmark_unit=kcal/mol group=P
  N   -1.363000000  -0.313000000   1.260000000
  C   -3.314000000   0.102000000  -0.406000000
  C   -2.240000000  -0.133000000   0.540000000
  H   -3.964000000  -0.768000000  -0.463000000
  H   -2.880000000   0.291000000  -1.388000000
  H   -3.901000000   0.966000000  -0.102000000
 Br    3.605000000   0.243300000  -1.077400000
  F    1.507000000   1.363300000   0.706600000
  N   -0.131000000   0.364300000  -2.312400000
  C    0.605000000   0.280300000  -1.430400000
  P    1.651000000  -0.056700000   0.012600000
