17
charge=0 charge_a=0 charge_b=0 selection_a=1-11 selection_b=12-17 scaling=2.0 benchmark_Eint=-0.588 benchmark_unit=kcal/mol group=P
  C    1.119000000  -0.662000000   1.919000000
  P    1.073000000  -0.074000000   0.099000000
  C    2.818000000   0.272000000  -0.015000000
  N    3.907000000   0.624000000  -0.144000000
  F   -0.091000000  -1.111000000   2.278000000
  F    1.412000000   0.404000000   2.685000000
  F    2.010000000  -1.621000000   2.193000000
  C    1.151000000  -1.795000000  -0.748000000
  F    2.292000000  -2.465000000  -0.559000000
  F    1.004000000  -1.605000000  -2.070000000
  F    0.146000000  -2.567000000  -0.319000000
  N   -5.167000000  -0.936000000  -0.355000000
  C   -6.265000000  -1.154000000  -0.107000000
  C   -7.655000000  -1.435000000   0.210000000
  H   -7.749000000  -1.714000000   1.258000000
  H   -8.020000000  -2.254000000  -0.407000000
  H   -8.267000000  -0.554000000   0.023000000
