14
charge=0 charge_a=0 charge_b=0 selection_a=1-7 selection_b=8-14 scaling=1.05 benchmark_Eint=-4.260 benchmark_unit=kcal/mol group=P
  O    3.071000000   2.088000000  -0.739000000
  O    1.778000000   0.458000000  -1.324000000
  N    2.069000000   1.412000000  -0.619000000
  C    1.111000000   1.764000000   0.475000000
  H    0.144000000   1.936000000   0.013000000
  H    1.488000000   2.642000000   0.983000000
  H    1.046000000   0.904000000   1.132000000
  F   -4.098250000  -0.533350000  -0.065150000
  F   -2.662250000  -1.168350000   1.719850000
  P   -0.663250000  -1.544350000  -1.033150000
  F   -0.050250000  -1.479350000   0.434850000
  F   -1.351250000  -0.110350000  -1.016150000
  P   -3.696250000  -1.853350000   0.723850000
  S   -2.383250000  -2.808350000  -0.675150000
