16
charge=0 charge_a=0 charge_b=0 selection_a=1-9 selection_b=10-16 scaling=1.05 benchmark_Eint=-6.539 benchmark_unit=kcal/mol group=P
  O   -1.365000000  -0.522000000   0.190000000
  C   -3.318000000   0.544000000   0.276000000
  C   -3.366000000  -0.423000000  -0.782000000
  C   -2.090000000   0.445000000   0.831000000
  C   -2.164000000  -1.040000000  -0.793000000
  H   -4.101000000   1.215000000   0.581000000
  H   -4.193000000  -0.630000000  -1.437000000
  H   -1.595000000   0.938000000   1.647000000
  H   -1.733000000  -1.830000000  -1.379000000
  N    4.470100000   0.147350000  -0.687600000
  N    1.098100000  -2.851650000  -0.928600000
  C    1.333100000  -1.762650000  -0.643600000
  N    1.253100000   0.268350000   2.484400000
  C    1.425100000   0.072350000   1.364400000
  C    3.341100000   0.012350000  -0.512600000
  P    1.556100000  -0.010650000  -0.410600000
