14
charge=0 charge_a=0 charge_b=0 selection_a=1-7 selection_b=8-14 scaling=1.05 benchmark_Eint=-8.051 benchmark_unit=kcal/mol group=P
  O    1.088000000   0.716000000   1.042000000
  O    0.220000000   2.301000000  -0.142000000
  N    1.154000000   1.610000000   0.206000000
  C    2.466000000   1.803000000  -0.475000000
  H    2.513000000   2.823000000  -0.835000000
  H    2.469000000   1.098000000  -1.304000000
  H    3.250000000   1.562000000   0.231000000
  N   -3.500100000  -2.836000000  -0.316550000
  N    0.146900000  -2.594000000   2.316450000
  C   -0.451100000  -1.987000000   1.543450000
  N    0.240900000  -0.840000000  -1.898550000
  C   -0.413100000  -0.970000000  -0.961550000
  C   -2.622100000  -2.154000000  -0.019550000
  P   -1.434100000  -0.922000000   0.505450000
