19
charge=0 charge_a=0 charge_b=0 selection_a=1-12 selection_b=13-19 scaling=0.9 benchmark_Eint=-17.546 benchmark_unit=kcal/mol group=P
  C    4.796000000  -0.544000000  -0.156000000
  C    4.135000000   0.474000000  -0.828000000
  C    2.846000000   0.809000000  -0.475000000
  N    2.214000000   0.151000000   0.526000000
  C    2.843000000  -0.844000000   1.197000000
  C    4.131000000  -1.203000000   0.869000000
  O    0.990000000   0.481000000   0.849000000
  H    2.262000000   1.578000000  -0.949000000
  H    2.255000000  -1.308000000   1.969000000
  H    4.606000000   1.016000000  -1.633000000
  H    4.599000000  -2.004000000   1.421000000
  H    5.805000000  -0.818000000  -0.424000000
  P   -0.823500000  -0.384800000  -0.011400000
  C   -2.164500000  -1.256800000  -0.876400000
  N   -3.127500000  -1.704800000  -1.321400000
  C    0.059500000  -1.876800000   0.423600000
  N    0.640500000  -2.792800000   0.810600000
  C    0.063500000   0.031200000  -1.506400000
  N    0.647500000   0.406200000  -2.423400000
