11
charge=0 charge_a=0 charge_b=0 selection_a=1-7 selection_b=8-11 scaling=2.0 benchmark_Eint=-0.361 benchmark_unit=kcal/mol group=P
  O   -0.051000000   1.826000000  -0.238000000
  O    1.053000000   3.487000000  -1.069000000
  N    0.985000000   2.435000000  -0.468000000
  C    2.252000000   1.838000000   0.054000000
  H    2.235000000   1.963000000   1.133000000
  H    3.083000000   2.369000000  -0.393000000
  H    2.239000000   0.781000000  -0.191000000
  P   -0.235000000  -3.698000000   0.410000000
  F   -0.668000000  -5.240000000   0.665000000
  H   -1.384000000  -3.292000000  -0.314000000
  H   -0.723000000  -3.157000000   1.628000000
