11
charge=0 charge_a=0 charge_b=0 selection_a=1-7 selection_b=8-11 scaling=1.05 benchmark_Eint=-4.564 benchmark_unit=kcal/mol group=P
  O   -0.051000000   1.826000000  -0.238000000
  O    1.053000000   3.487000000  -1.069000000
  N    0.985000000   2.435000000  -0.468000000
  C    2.252000000   1.838000000   0.054000000
  H    2.235000000   1.963000000   1.133000000
  H    3.083000000   2.369000000  -0.393000000
  H    2.239000000   0.781000000  -0.191000000
  P   -0.147600000  -1.074100000   0.102200000
  F   -0.580600000  -2.616100000   0.357200000
  H   -1.296600000  -0.668100000  -0.621800000
  H   -0.635600000  -0.533100000   1.320200000
