15
charge=0 charge_a=0 charge_b=0 selection_a=1-10 selection_b=11-15 scaling=2.0 benchmark_Eint=-0.980 benchmark_unit=kcal/mol group=P
  O   -0.822000000   1.278000000   0.242000000
  C   -0.299000000   2.365000000   0.095000000
  C    1.153000000   2.605000000   0.409000000
  C   -1.083000000   3.534000000  -0.438000000
  H    1.308000000   3.600000000   0.824000000
  H    1.533000000   1.847000000   1.086000000
  H    1.717000000   2.545000000  -0.524000000
  H   -2.072000000   3.217000000  -0.755000000
  H   -0.550000000   3.996000000  -1.270000000
  H   -1.173000000   4.295000000   0.340000000
 Br    2.086000000  -5.807000000   0.692000000
  F    1.881000000  -3.125000000   1.936000000
  N    2.583000000  -2.610000000  -1.531000000
  C    2.063000000  -3.091000000  -0.623000000
  P    1.072000000  -3.778000000   0.726000000
