17
charge=0 charge_a=0 charge_b=0 selection_a=1-10 selection_b=11-17 scaling=0.8 benchmark_Eint=0.333 benchmark_unit=kcal/mol group=P
  C    2.234000000   2.770000000  -1.311000000
  C    0.977000000   3.601000000  -1.395000000
  C    1.084000000   4.918000000  -2.123000000
  O   -0.073000000   3.232000000  -0.914000000
  H    2.372000000   2.257000000  -2.266000000
  H    3.110000000   3.397000000  -1.153000000
  H    2.153000000   2.024000000  -0.528000000
  H    0.101000000   5.360000000  -2.253000000
  H    1.569000000   4.781000000  -3.090000000
  H    1.715000000   5.597000000  -1.546000000
  P   -0.713000000   1.124800000  -0.355600000
  S   -1.250000000  -0.940200000   0.100400000
  P    0.511000000  -2.096200000   0.441400000
  F    1.511000000  -1.498200000  -0.643600000
  F    0.138000000   0.888800000  -1.677600000
  F    0.509000000   1.310800000   0.642400000
  F    1.146000000  -1.361200000   1.702400000
