18
charge=0 charge_a=0 charge_b=0 selection_a=1-11 selection_b=12-18 scaling=2.0 benchmark_Eint=-0.537 benchmark_unit=kcal/mol group=P
  C   -1.881000000   0.325000000   0.815000000
  P   -0.708000000  -0.560000000  -0.412000000
  C   -0.871000000  -2.178000000   0.313000000
  N   -0.839000000  -3.230000000   0.780000000
  F   -2.183000000   1.546000000   0.346000000
  F   -1.228000000   0.469000000   1.977000000
  F   -3.031000000  -0.308000000   1.067000000
  C   -1.950000000  -0.853000000  -1.840000000
  F   -3.082000000  -1.478000000  -1.508000000
  F   -1.325000000  -1.600000000  -2.767000000
  F   -2.273000000   0.322000000  -2.396000000
  O    0.548000000   5.260000000  -3.042000000
  N    1.066000000   5.891000000  -2.136000000
  C    1.330000000   7.342000000  -2.378000000
  O    1.355000000   5.441000000  -1.043000000
  H    0.418000000   7.869000000  -2.109000000
  H    1.544000000   7.473000000  -3.431000000
  H    2.149000000   7.646000000  -1.737000000
