14
charge=0 charge_a=0 charge_b=0 selection_a=1-10 selection_b=11-14 scaling=1.5 benchmark_Eint=-2.153 benchmark_unit=kcal/mol group=P
  O    0.918000000   1.371000000   0.019000000
  C    0.448000000   2.489000000   0.008000000
  C    1.338000000   3.706000000   0.044000000
  C   -1.038000000   2.733000000  -0.045000000
  H    1.074000000   4.396000000  -0.758000000
  H    1.183000000   4.239000000   0.984000000
  H    2.380000000   3.415000000  -0.040000000
  H   -1.582000000   1.803000000   0.089000000
  H   -1.293000000   3.166000000  -1.015000000
  H   -1.334000000   3.460000000   0.711000000
  P   -1.092000000  -2.118000000   0.119500000
  F   -1.477000000  -3.705000000   0.095500000
  H    0.033000000  -2.222000000   0.974500000
  H   -0.294000000  -2.113000000  -1.051500000
