16
charge=0 charge_a=0 charge_b=0 selection_a=1-9 selection_b=10-16 scaling=1.0 benchmark_Eint=-3.228 benchmark_unit=kcal/mol group=P
  C   -3.249000000  -0.872000000   0.035000000
  C   -1.989000000  -1.002000000  -0.442000000
  O   -1.375000000   0.215000000  -0.479000000
  C   -2.270000000   1.131000000  -0.011000000
  C   -3.433000000   0.521000000   0.316000000
  H   -4.314000000   0.996000000   0.709000000
  H   -3.963000000  -1.665000000   0.173000000
  H   -1.929000000   2.148000000   0.022000000
  H   -1.400000000  -1.834000000  -0.777000000
  P    1.618000000   0.232000000  -0.133000000
  F    1.265000000  -1.013000000  -1.052000000
  S    3.755000000  -0.027000000   0.089000000
  P    4.214000000  -2.114000000   0.259000000
  F    3.703000000  -2.667000000  -1.141000000
  F    1.104000000  -0.379000000   1.237000000
  F    2.995000000  -2.642000000   1.130000000
