21
charge=0 charge_a=0 charge_b=0 selection_a=1-10 selection_b=11-21 scaling=1.5 benchmark_Eint=-1.998 benchmark_unit=kcal/mol group=P
  O   -0.604000000   1.329000000   0.137000000
  C   -0.260000000   2.485000000   0.015000000
  C    1.167000000   2.922000000   0.235000000
  C   -1.245000000   3.560000000  -0.372000000
  H    1.609000000   3.181000000  -0.729000000
  H    1.206000000   3.819000000   0.853000000
  H    1.747000000   2.126000000   0.688000000
  H   -2.202000000   3.119000000  -0.632000000
  H   -0.861000000   4.148000000  -1.207000000
  H   -1.376000000   4.248000000   0.465000000
  F    2.012000000  -1.417500000  -1.123500000
  C    1.321000000  -2.557500000  -1.279500000
  F    1.504000000  -3.549500000   2.669500000
  F    2.103000000  -1.626500000   1.859500000
  F    0.413000000  -2.367500000  -2.251500000
  F    2.176000000  -3.493500000  -1.702500000
  F    2.995000000  -3.445500000   1.098500000
  N    0.349000000  -5.905500000   0.001500000
  C    1.854000000  -2.907500000   1.543500000
  C    0.448000000  -4.764500000   0.116500000
  P    0.374000000  -2.995500000   0.333500000
