12
charge=0 charge_a=0 charge_b=0 selection_a=1-7 selection_b=8-12 scaling=1.5 benchmark_Eint=-2.062 benchmark_unit=kcal/mol group=P
  O    1.743000000   0.251000000  -0.413000000
  O    1.052000000   1.789000000  -1.768000000
  N    1.545000000   1.421000000  -0.723000000
  C    1.891000000   2.456000000   0.293000000
  H    2.030000000   3.399000000  -0.219000000
  H    2.776000000   2.124000000   0.822000000
  H    1.040000000   2.500000000   0.970000000
 Br   -3.721000000  -3.368000000   0.677000000
  F   -2.126000000  -1.925000000  -1.382000000
  N   -2.236000000   0.210000000   1.478000000
  C   -2.158000000  -0.789000000   0.909000000
  P   -1.788000000  -2.368000000   0.103000000
