16
charge=0 charge_a=0 charge_b=0 selection_a=1-4 selection_b=5-16 scaling=1.5 benchmark_Eint=-3.205 benchmark_unit=kcal/mol group=P
  P   -0.423000000  -0.236000000  -0.258000000
  F   -1.812000000  -0.669000000  -1.019000000
  H   -0.754000000   1.129000000  -0.088000000
  H   -0.839000000  -0.591000000   1.049000000
  O    2.329500000   1.135000000   1.912500000
  N    3.482500000   0.868000000   1.403500000
  C    4.330500000   1.879000000   1.076500000
  C    3.857500000  -0.419000000   1.177500000
  C    5.567500000   1.619000000   0.532500000
  C    5.087500000  -0.711000000   0.631500000
  C    5.967500000   0.309000000   0.299500000
  H    3.942500000   2.862000000   1.283500000
  H    3.121500000  -1.152000000   1.457500000
  H    6.210500000   2.453000000   0.291500000
  H    5.345500000  -1.747000000   0.469500000
  H    6.934500000   0.092000000  -0.127500000
