17
charge=0 charge_a=0 charge_b=0 selection_a=1-10 selection_b=11-17 scaling=0.8 benchmark_Eint=-1.421 benchmark_unit=kcal/mol group=P
  O   -0.776000000   1.195000000   0.187000000
  C   -0.281000000   2.303000000   0.083000000
  C    1.207000000   2.512000000   0.039000000
  C   -1.151000000   3.524000000  -0.032000000
  H    1.523000000   2.461000000  -1.006000000
  H    1.486000000   3.491000000   0.423000000
  H    1.726000000   1.731000000   0.586000000
  H   -2.195000000   3.244000000  -0.131000000
  H   -0.838000000   4.130000000  -0.884000000
  H   -1.019000000   4.141000000   0.858000000
  N    0.761600000  -3.617400000  -0.174400000
  N    1.344600000   0.026600000   2.356600000
  C    0.781600000  -0.329400000   1.419600000
  N    1.166600000   0.360600000  -2.197400000
  C    0.679600000  -0.137400000  -1.282400000
  C    0.465600000  -2.509400000  -0.083400000
  P   -0.246400000  -0.863400000   0.060600000
