14
charge=0 charge_a=0 charge_b=0 selection_a=1-9 selection_b=10-14 scaling=0.9 benchmark_Eint=-4.096 benchmark_unit=kcal/mol group=P
  C   -3.098000000   1.588000000  -1.845000000
  O   -2.737000000   1.307000000  -0.559000000
  C   -2.886000000   2.457000000   0.163000000
  C   -3.330000000   3.451000000  -0.640000000
  C   -3.469000000   2.885000000  -1.950000000
  H   -3.536000000   4.463000000  -0.343000000
  H   -3.800000000   3.382000000  -2.843000000
  H   -2.638000000   2.390000000   1.206000000
  H   -3.035000000   0.774000000  -2.542000000
  P   -2.125000000  -1.170700000   0.114200000
  C   -2.010000000  -0.211700000   1.639200000
  N   -1.847000000   0.500300000   2.529200000
 Br   -1.664000000  -3.161700000   1.051200000
  F   -3.710000000  -1.256700000   0.033200000
