16
charge=0 charge_a=0 charge_b=0 selection_a=1-9 selection_b=10-16 scaling=1.1 benchmark_Eint=-2.727 benchmark_unit=kcal/mol group=P
  C   -3.249000000  -0.872000000   0.035000000
  C   -1.989000000  -1.002000000  -0.442000000
  O   -1.375000000   0.215000000  -0.479000000
  C   -2.270000000   1.131000000  -0.011000000
  C   -3.433000000   0.521000000   0.316000000
  H   -4.314000000   0.996000000   0.709000000
  H   -3.963000000  -1.665000000   0.173000000
  H   -1.929000000   2.148000000   0.022000000
  H   -1.400000000  -1.834000000  -0.777000000
  P    1.917300000   0.233700000  -0.098400000
  F    1.564300000  -1.011300000  -1.017400000
  S    4.054300000  -0.025300000   0.123600000
  P    4.513300000  -2.112300000   0.293600000
  F    4.002300000  -2.665300000  -1.106400000
  F    1.403300000  -0.377300000   1.271600000
  F    3.294300000  -2.640300000   1.164600000
