16
charge=0 charge_a=0 charge_b=0 selection_a=1-9 selection_b=10-16 scaling=2.0 benchmark_Eint=-0.173 benchmark_unit=kcal/mol group=P
  C   -3.249000000  -0.872000000   0.035000000
  C   -1.989000000  -1.002000000  -0.442000000
  O   -1.375000000   0.215000000  -0.479000000
  C   -2.270000000   1.131000000  -0.011000000
  C   -3.433000000   0.521000000   0.316000000
  H   -4.314000000   0.996000000   0.709000000
  H   -3.963000000  -1.665000000   0.173000000
  H   -1.929000000   2.148000000   0.022000000
  H   -1.400000000  -1.834000000  -0.777000000
  P    4.611000000   0.249000000   0.213000000
  F    4.258000000  -0.996000000  -0.706000000
  S    6.748000000  -0.010000000   0.435000000
  P    7.207000000  -2.097000000   0.605000000
  F    6.696000000  -2.650000000  -0.795000000
  F    4.097000000  -0.362000000   1.583000000
  F    5.988000000  -2.625000000   1.476000000
