17
charge=0 charge_a=0 charge_b=0 selection_a=1-5 selection_b=6-17 scaling=2.0 benchmark_Eint=-2.044 benchmark_unit=kcal/mol group=P
 Br   -2.595000000   0.711000000   1.325000000
  F   -0.028000000   1.606000000   0.177000000
  N    0.644000000  -1.390000000   2.006000000
  C    0.060000000  -0.720000000   1.272000000
  P   -0.786000000   0.209000000  -0.032000000
  O    3.180000000  -0.981000000  -2.332000000
  N    4.337000000  -0.778000000  -1.759000000
  C    4.873000000   0.466000000  -1.737000000
  C    4.987000000  -1.813000000  -1.175000000
  C    6.086000000   0.696000000  -1.127000000
  C    6.204000000  -1.619000000  -0.560000000
  C    6.771000000  -0.353000000  -0.528000000
  H    4.274000000   1.219000000  -2.219000000
  H    4.470000000  -2.755000000  -1.230000000
  H    6.483000000   1.699000000  -1.127000000
  H    6.691000000  -2.465000000  -0.101000000
  H    7.722000000  -0.186000000  -0.045000000
