19
charge=0 charge_a=0 charge_b=0 selection_a=1-12 selection_b=13-19 scaling=0.9 benchmark_Eint=-9.769 benchmark_unit=kcal/mol group=P
  O    1.292000000  -1.173000000  -1.408000000
  N    2.256000000  -0.526000000  -0.831000000
  C    2.736000000   0.616000000  -1.385000000
  C    2.773000000  -0.977000000   0.340000000
  C    3.750000000   1.323000000  -0.777000000
  C    3.787000000  -0.294000000   0.973000000
  C    4.293000000   0.874000000   0.419000000
  H    2.254000000   0.900000000  -2.304000000
  H    2.318000000  -1.882000000   0.705000000
  H    4.102000000   2.228000000  -1.248000000
  H    4.170000000  -0.685000000   1.904000000
  H    5.086000000   1.420000000   0.907000000
  F   -1.788500000   3.046500000   0.069100000
  F   -1.099500000   1.768500000   1.952100000
  P   -0.719500000  -0.466500000  -0.706900000
  F   -0.036500000  -0.689500000   0.715100000
  F   -0.056500000   0.945500000  -1.028900000
  P   -2.442500000   2.058500000   1.139100000
  S   -2.680500000   0.277500000   0.018100000
