14
charge=0 charge_a=0 charge_b=0 selection_a=1-7 selection_b=8-14 scaling=0.9 benchmark_Eint=-3.654 benchmark_unit=kcal/mol group=P
  O    3.071000000   2.088000000  -0.739000000
  O    1.778000000   0.458000000  -1.324000000
  N    2.069000000   1.412000000  -0.619000000
  C    1.111000000   1.764000000   0.475000000
  H    0.144000000   1.936000000   0.013000000
  H    1.488000000   2.642000000   0.983000000
  H    1.046000000   0.904000000   1.132000000
  F   -3.749500000  -0.247300000  -0.106700000
  F   -2.313500000  -0.882300000   1.678300000
  P   -0.314500000  -1.258300000  -1.074700000
  F    0.298500000  -1.193300000   0.393300000
  F   -1.002500000   0.175700000  -1.057700000
  P   -3.347500000  -1.567300000   0.682300000
  S   -2.034500000  -2.522300000  -0.716700000
