20
charge=0 charge_a=0 charge_b=0 selection_a=1-9 selection_b=10-20 scaling=0.95 benchmark_Eint=-3.630 benchmark_unit=kcal/mol group=P
  C   -2.303000000  -1.097000000  -0.538000000
  O   -1.459000000  -0.046000000  -0.743000000
  C   -1.955000000   1.008000000  -0.033000000
  C   -3.088000000   0.645000000   0.613000000
  C   -3.315000000  -0.731000000   0.282000000
  H   -3.691000000   1.272000000   1.245000000
  H   -4.124000000  -1.356000000   0.615000000
  H   -1.399000000   1.924000000  -0.098000000
  H   -2.041000000  -2.013000000  -1.031000000
  F   -0.125600000  -1.261650000   1.669000000
  C    1.060400000  -0.644650000   1.736000000
  P    1.459400000   0.137350000   0.036000000
  C    3.163400000   0.508350000   0.384000000
  N    4.240400000   0.871350000   0.565000000
  F    0.965400000   0.357350000   2.626000000
  F    1.958400000  -1.518650000   2.194000000
  C    1.789400000  -1.461650000  -0.961000000
  F    2.696400000  -2.289650000  -0.438000000
  F    2.216400000  -1.096650000  -2.181000000
  F    0.642400000  -2.141650000  -1.102000000
