14
charge=0 charge_a=0 charge_b=0 selection_a=1-7 selection_b=8-14 scaling=1.25 benchmark_Eint=-2.622 benchmark_unit=kcal/mol group=P
  O    3.071000000   2.088000000  -0.739000000
  O    1.778000000   0.458000000  -1.324000000
  N    2.069000000   1.412000000  -0.619000000
  C    1.111000000   1.764000000   0.475000000
  H    0.144000000   1.936000000   0.013000000
  H    1.488000000   2.642000000   0.983000000
  H    1.046000000   0.904000000   1.132000000
  F   -4.563250000  -0.914750000  -0.009750000
  F   -3.127250000  -1.549750000   1.775250000
  P   -1.128250000  -1.925750000  -0.977750000
  F   -0.515250000  -1.860750000   0.490250000
  F   -1.816250000  -0.491750000  -0.960750000
  P   -4.161250000  -2.234750000   0.779250000
  S   -2.848250000  -3.189750000  -0.619750000
