19
charge=0 charge_a=0 charge_b=0 selection_a=1-12 selection_b=13-19 scaling=0.95 benchmark_Eint=-19.039 benchmark_unit=kcal/mol group=P
  C    4.796000000  -0.544000000  -0.156000000
  C    4.135000000   0.474000000  -0.828000000
  C    2.846000000   0.809000000  -0.475000000
  N    2.214000000   0.151000000   0.526000000
  C    2.843000000  -0.844000000   1.197000000
  C    4.131000000  -1.203000000   0.869000000
  O    0.990000000   0.481000000   0.849000000
  H    2.262000000   1.578000000  -0.949000000
  H    2.255000000  -1.308000000   1.969000000
  H    4.606000000   1.016000000  -1.633000000
  H    4.599000000  -2.004000000   1.421000000
  H    5.805000000  -0.818000000  -0.424000000
  P   -0.924250000  -0.432900000  -0.059200000
  C   -2.265250000  -1.304900000  -0.924200000
  N   -3.228250000  -1.752900000  -1.369200000
  C   -0.041250000  -1.924900000   0.375800000
  N    0.539750000  -2.840900000   0.762800000
  C   -0.037250000  -0.016900000  -1.554200000
  N    0.546750000   0.358100000  -2.471200000
