13
charge=0 charge_a=0 charge_b=0 selection_a=1-9 selection_b=10-13 scaling=0.9 benchmark_Eint=-3.134 benchmark_unit=kcal/mol group=P
  O   -1.336000000  -0.127000000   0.000000000
  C   -3.411000000   0.679000000   0.000000000
  C   -3.472000000  -0.753000000   0.000000000
  C   -2.098000000   1.005000000   0.000000000
  C   -2.191000000  -1.190000000   0.000000000
  H   -4.238000000   1.366000000   0.000000000
  H   -4.354000000  -1.368000000   0.000000000
  H   -1.556000000   1.932000000   0.000000000
  H   -1.735000000  -2.161000000   0.000000000
  P    1.159700000   0.142100000   0.000000000
  F    2.768700000  -0.069900000   0.000000000
  H    0.849700000  -0.789900000  -1.026000000
  H    0.849700000  -0.789900000   1.026000000
