17
charge=0 charge_a=0 charge_b=0 selection_a=1-10 selection_b=11-17 scaling=1.05 benchmark_Eint=-10.959 benchmark_unit=kcal/mol group=P
  O   -0.776000000   1.195000000   0.187000000
  C   -0.281000000   2.303000000   0.083000000
  C    1.207000000   2.512000000   0.039000000
  C   -1.151000000   3.524000000  -0.032000000
  H    1.523000000   2.461000000  -1.006000000
  H    1.486000000   3.491000000   0.423000000
  H    1.726000000   1.731000000   0.586000000
  H   -2.195000000   3.244000000  -0.131000000
  H   -0.838000000   4.130000000  -0.884000000
  H   -1.019000000   4.141000000   0.858000000
  N    0.927100000  -4.260650000  -0.213900000
  N    1.510100000  -0.616650000   2.317100000
  C    0.947100000  -0.972650000   1.380100000
  N    1.332100000  -0.282650000  -2.236900000
  C    0.845100000  -0.780650000  -1.321900000
  C    0.631100000  -3.152650000  -0.122900000
  P   -0.080900000  -1.506650000   0.021100000
