19
charge=0 charge_a=0 charge_b=0 selection_a=1-12 selection_b=13-19 scaling=0.95 benchmark_Eint=-10.473 benchmark_unit=kcal/mol group=P
  O    1.292000000  -1.173000000  -1.408000000
  N    2.256000000  -0.526000000  -0.831000000
  C    2.736000000   0.616000000  -1.385000000
  C    2.773000000  -0.977000000   0.340000000
  C    3.750000000   1.323000000  -0.777000000
  C    3.787000000  -0.294000000   0.973000000
  C    4.293000000   0.874000000   0.419000000
  H    2.254000000   0.900000000  -2.304000000
  H    2.318000000  -1.882000000   0.705000000
  H    4.102000000   2.228000000  -1.248000000
  H    4.170000000  -0.685000000   1.904000000
  H    5.086000000   1.420000000   0.907000000
  F   -1.900250000   3.085750000   0.108050000
  F   -1.211250000   1.807750000   1.991050000
  P   -0.831250000  -0.427250000  -0.667950000
  F   -0.148250000  -0.650250000   0.754050000
  F   -0.168250000   0.984750000  -0.989950000
  P   -2.554250000   2.097750000   1.178050000
  S   -2.792250000   0.316750000   0.057050000
