15
charge=0 charge_a=0 charge_b=0 selection_a=1-10 selection_b=11-15 scaling=1.5 benchmark_Eint=-3.007 benchmark_unit=kcal/mol group=P
  O   -0.822000000   1.278000000   0.242000000
  C   -0.299000000   2.365000000   0.095000000
  C    1.153000000   2.605000000   0.409000000
  C   -1.083000000   3.534000000  -0.438000000
  H    1.308000000   3.600000000   0.824000000
  H    1.533000000   1.847000000   1.086000000
  H    1.717000000   2.545000000  -0.524000000
  H   -2.072000000   3.217000000  -0.755000000
  H   -0.550000000   3.996000000  -1.270000000
  H   -1.173000000   4.295000000   0.340000000
 Br    1.612500000  -4.543000000   0.571000000
  F    1.407500000  -1.861000000   1.815000000
  N    2.109500000  -1.346000000  -1.652000000
  C    1.589500000  -1.827000000  -0.744000000
  P    0.598500000  -2.514000000   0.605000000
