19
charge=0 charge_a=0 charge_b=0 selection_a=1-12 selection_b=13-19 scaling=1.1 benchmark_Eint=-17.352 benchmark_unit=kcal/mol group=P
  C    4.796000000  -0.544000000  -0.156000000
  C    4.135000000   0.474000000  -0.828000000
  C    2.846000000   0.809000000  -0.475000000
  N    2.214000000   0.151000000   0.526000000
  C    2.843000000  -0.844000000   1.197000000
  C    4.131000000  -1.203000000   0.869000000
  O    0.990000000   0.481000000   0.849000000
  H    2.262000000   1.578000000  -0.949000000
  H    2.255000000  -1.308000000   1.969000000
  H    4.606000000   1.016000000  -1.633000000
  H    4.599000000  -2.004000000   1.421000000
  H    5.805000000  -0.818000000  -0.424000000
  P   -1.226500000  -0.577200000  -0.202600000
  C   -2.567500000  -1.449200000  -1.067600000
  N   -3.530500000  -1.897200000  -1.512600000
  C   -0.343500000  -2.069200000   0.232400000
  N    0.237500000  -2.985200000   0.619400000
  C   -0.339500000  -0.161200000  -1.697600000
  N    0.244500000   0.213800000  -2.614600000
