16
charge=0 charge_a=0 charge_b=0 selection_a=1-9 selection_b=10-16 scaling=2.0 benchmark_Eint=-0.568 benchmark_unit=kcal/mol group=P
  O   -1.365000000  -0.522000000   0.190000000
  C   -3.318000000   0.544000000   0.276000000
  C   -3.366000000  -0.423000000  -0.782000000
  C   -2.090000000   0.445000000   0.831000000
  C   -2.164000000  -1.040000000  -0.793000000
  H   -4.101000000   1.215000000   0.581000000
  H   -4.193000000  -0.630000000  -1.437000000
  H   -1.595000000   0.938000000   1.647000000
  H   -1.733000000  -1.830000000  -1.379000000
  N    7.113000000   0.610000000  -1.231000000
  N    3.741000000  -2.389000000  -1.472000000
  C    3.976000000  -1.300000000  -1.187000000
  N    3.896000000   0.731000000   1.941000000
  C    4.068000000   0.535000000   0.821000000
  C    5.984000000   0.475000000  -1.056000000
  P    4.199000000   0.452000000  -0.954000000
