20
charge=0 charge_a=0 charge_b=0 selection_a=1-9 selection_b=10-20 scaling=0.8 benchmark_Eint=2.192 benchmark_unit=kcal/mol group=P
  C   -2.303000000  -1.097000000  -0.538000000
  O   -1.459000000  -0.046000000  -0.743000000
  C   -1.955000000   1.008000000  -0.033000000
  C   -3.088000000   0.645000000   0.613000000
  C   -3.315000000  -0.731000000   0.282000000
  H   -3.691000000   1.272000000   1.245000000
  H   -4.124000000  -1.356000000   0.615000000
  H   -1.399000000   1.924000000  -0.098000000
  H   -2.041000000  -2.013000000  -1.031000000
  F   -0.586400000  -1.290600000   1.546000000
  C    0.599600000  -0.673600000   1.613000000
  P    0.998600000   0.108400000  -0.087000000
  C    2.702600000   0.479400000   0.261000000
  N    3.779600000   0.842400000   0.442000000
  F    0.504600000   0.328400000   2.503000000
  F    1.497600000  -1.547600000   2.071000000
  C    1.328600000  -1.490600000  -1.084000000
  F    2.235600000  -2.318600000  -0.561000000
  F    1.755600000  -1.125600000  -2.304000000
  F    0.181600000  -2.170600000  -1.225000000
