11
charge=0 charge_a=0 charge_b=0 selection_a=1-7 selection_b=8-11 scaling=0.8 benchmark_Eint=1.226 benchmark_unit=kcal/mol group=P
  O   -0.051000000   1.826000000  -0.238000000
  O    1.053000000   3.487000000  -1.069000000
  N    0.985000000   2.435000000  -0.468000000
  C    2.252000000   1.838000000   0.054000000
  H    2.235000000   1.963000000   1.133000000
  H    3.083000000   2.369000000  -0.393000000
  H    2.239000000   0.781000000  -0.191000000
  P   -0.124600000  -0.383600000   0.021200000
  F   -0.557600000  -1.925600000   0.276200000
  H   -1.273600000   0.022400000  -0.702800000
  H   -0.612600000   0.157400000   1.239200000
