14
charge=0 charge_a=0 charge_b=0 selection_a=1-7 selection_b=8-14 scaling=1.5 benchmark_Eint=-2.909 benchmark_unit=kcal/mol group=P
  O    1.088000000   0.716000000   1.042000000
  O    0.220000000   2.301000000  -0.142000000
  N    1.154000000   1.610000000   0.206000000
  C    2.466000000   1.803000000  -0.475000000
  H    2.513000000   2.823000000  -0.835000000
  H    2.469000000   1.098000000  -1.304000000
  H    3.250000000   1.562000000   0.231000000
  N   -4.581000000  -3.538000000  -0.546500000
  N   -0.934000000  -3.296000000   2.086500000
  C   -1.532000000  -2.689000000   1.313500000
  N   -0.840000000  -1.542000000  -2.128500000
  C   -1.494000000  -1.672000000  -1.191500000
  C   -3.703000000  -2.856000000  -0.249500000
  P   -2.515000000  -1.624000000   0.275500000
