20
charge=0 charge_a=0 charge_b=0 selection_a=1-9 selection_b=10-20 scaling=1.05 benchmark_Eint=-3.530 benchmark_unit=kcal/mol group=P
  C   -2.303000000  -1.097000000  -0.538000000
  O   -1.459000000  -0.046000000  -0.743000000
  C   -1.955000000   1.008000000  -0.033000000
  C   -3.088000000   0.645000000   0.613000000
  C   -3.315000000  -0.731000000   0.282000000
  H   -3.691000000   1.272000000   1.245000000
  H   -4.124000000  -1.356000000   0.615000000
  H   -1.399000000   1.924000000  -0.098000000
  H   -2.041000000  -2.013000000  -1.031000000
  F    0.181600000  -1.242350000   1.751000000
  C    1.367600000  -0.625350000   1.818000000
  P    1.766600000   0.156650000   0.118000000
  C    3.470600000   0.527650000   0.466000000
  N    4.547600000   0.890650000   0.647000000
  F    1.272600000   0.376650000   2.708000000
  F    2.265600000  -1.499350000   2.276000000
  C    2.096600000  -1.442350000  -0.879000000
  F    3.003600000  -2.270350000  -0.356000000
  F    2.523600000  -1.077350000  -2.099000000
  F    0.949600000  -2.122350000  -1.020000000
