14
charge=0 charge_a=0 charge_b=0 selection_a=1-7 selection_b=8-14 scaling=0.8 benchmark_Eint=-0.629 benchmark_unit=kcal/mol group=P
  O    1.088000000   0.716000000   1.042000000
  O    0.220000000   2.301000000  -0.142000000
  N    1.154000000   1.610000000   0.206000000
  C    2.466000000   1.803000000  -0.475000000
  H    2.513000000   2.823000000  -0.835000000
  H    2.469000000   1.098000000  -1.304000000
  H    3.250000000   1.562000000   0.231000000
  N   -2.899600000  -2.446000000  -0.188800000
  N    0.747400000  -2.204000000   2.444200000
  C    0.149400000  -1.597000000   1.671200000
  N    0.841400000  -0.450000000  -1.770800000
  C    0.187400000  -0.580000000  -0.833800000
  C   -2.021600000  -1.764000000   0.108200000
  P   -0.833600000  -0.532000000   0.633200000
