14
charge=0 charge_a=0 charge_b=0 selection_a=1-10 selection_b=11-14 scaling=1.0 benchmark_Eint=-6.227 benchmark_unit=kcal/mol group=P
  O    0.918000000   1.371000000   0.019000000
  C    0.448000000   2.489000000   0.008000000
  C    1.338000000   3.706000000   0.044000000
  C   -1.038000000   2.733000000  -0.045000000
  H    1.074000000   4.396000000  -0.758000000
  H    1.183000000   4.239000000   0.984000000
  H    2.380000000   3.415000000  -0.040000000
  H   -1.582000000   1.803000000   0.089000000
  H   -1.293000000   3.166000000  -1.015000000
  H   -1.334000000   3.460000000   0.711000000
  P   -0.422000000  -0.955000000   0.086000000
  F   -0.807000000  -2.542000000   0.062000000
  H    0.703000000  -1.059000000   0.941000000
  H    0.376000000  -0.950000000  -1.085000000
