19
charge=0 charge_a=0 charge_b=0 selection_a=1-12 selection_b=13-19 scaling=0.8 benchmark_Eint=-7.182 benchmark_unit=kcal/mol group=P
  C    4.796000000  -0.544000000  -0.156000000
  C    4.135000000   0.474000000  -0.828000000
  C    2.846000000   0.809000000  -0.475000000
  N    2.214000000   0.151000000   0.526000000
  C    2.843000000  -0.844000000   1.197000000
  C    4.131000000  -1.203000000   0.869000000
  O    0.990000000   0.481000000   0.849000000
  H    2.262000000   1.578000000  -0.949000000
  H    2.255000000  -1.308000000   1.969000000
  H    4.606000000   1.016000000  -1.633000000
  H    4.599000000  -2.004000000   1.421000000
  H    5.805000000  -0.818000000  -0.424000000
  P   -0.622000000  -0.288600000   0.084200000
  C   -1.963000000  -1.160600000  -0.780800000
  N   -2.926000000  -1.608600000  -1.225800000
  C    0.261000000  -1.780600000   0.519200000
  N    0.842000000  -2.696600000   0.906200000
  C    0.265000000   0.127400000  -1.410800000
  N    0.849000000   0.502400000  -2.327800000
