21
charge=0 charge_a=0 charge_b=0 selection_a=1-10 selection_b=11-21 scaling=0.95 benchmark_Eint=-5.648 benchmark_unit=kcal/mol group=P
  O   -0.604000000   1.329000000   0.137000000
  C   -0.260000000   2.485000000   0.015000000
  C    1.167000000   2.922000000   0.235000000
  C   -1.245000000   3.560000000  -0.372000000
  H    1.609000000   3.181000000  -0.729000000
  H    1.206000000   3.819000000   0.853000000
  H    1.747000000   2.126000000   0.688000000
  H   -2.202000000   3.119000000  -0.632000000
  H   -0.861000000   4.148000000  -1.207000000
  H   -1.376000000   4.248000000   0.465000000
  F    1.653400000   0.168150000  -1.195550000
  C    0.962400000  -0.971850000  -1.351550000
  F    1.145400000  -1.963850000   2.597450000
  F    1.744400000  -0.040850000   1.787450000
  F    0.054400000  -0.781850000  -2.323550000
  F    1.817400000  -1.907850000  -1.774550000
  F    2.636400000  -1.859850000   1.026450000
  N   -0.009600000  -4.319850000  -0.070550000
  C    1.495400000  -1.321850000   1.471450000
  C    0.089400000  -3.178850000   0.044450000
  P    0.015400000  -1.409850000   0.261450000
