14
charge=0 charge_a=0 charge_b=0 selection_a=1-7 selection_b=8-14 scaling=0.9 benchmark_Eint=-7.352 benchmark_unit=kcal/mol group=P
  O    1.088000000   0.716000000   1.042000000
  O    0.220000000   2.301000000  -0.142000000
  N    1.154000000   1.610000000   0.206000000
  C    2.466000000   1.803000000  -0.475000000
  H    2.513000000   2.823000000  -0.835000000
  H    2.469000000   1.098000000  -1.304000000
  H    3.250000000   1.562000000   0.231000000
  N   -3.139800000  -2.602000000  -0.239900000
  N    0.507200000  -2.360000000   2.393100000
  C   -0.090800000  -1.753000000   1.620100000
  N    0.601200000  -0.606000000  -1.821900000
  C   -0.052800000  -0.736000000  -0.884900000
  C   -2.261800000  -1.920000000   0.057100000
  P   -1.073800000  -0.688000000   0.582100000
