14
charge=0 charge_a=0 charge_b=0 selection_a=1-7 selection_b=8-14 scaling=0.95 benchmark_Eint=-8.293 benchmark_unit=kcal/mol group=P
  O    1.088000000   0.716000000   1.042000000
  O    0.220000000   2.301000000  -0.142000000
  N    1.154000000   1.610000000   0.206000000
  C    2.466000000   1.803000000  -0.475000000
  H    2.513000000   2.823000000  -0.835000000
  H    2.469000000   1.098000000  -1.304000000
  H    3.250000000   1.562000000   0.231000000
  N   -3.259900000  -2.680000000  -0.265450000
  N    0.387100000  -2.438000000   2.367550000
  C   -0.210900000  -1.831000000   1.594550000
  N    0.481100000  -0.684000000  -1.847450000
  C   -0.172900000  -0.814000000  -0.910450000
  C   -2.381900000  -1.998000000   0.031550000
  P   -1.193900000  -0.766000000   0.556550000
