14
charge=0 charge_a=0 charge_b=0 selection_a=1-9 selection_b=10-14 scaling=2.0 benchmark_Eint=-0.323 benchmark_unit=kcal/mol group=P
  C   -3.098000000   1.588000000  -1.845000000
  O   -2.737000000   1.307000000  -0.559000000
  C   -2.886000000   2.457000000   0.163000000
  C   -3.330000000   3.451000000  -0.640000000
  C   -3.469000000   2.885000000  -1.950000000
  H   -3.536000000   4.463000000  -0.343000000
  H   -3.800000000   3.382000000  -2.843000000
  H   -2.638000000   2.390000000   1.206000000
  H   -3.035000000   0.774000000  -2.542000000
  P   -1.377000000  -4.199000000   0.937000000
  C   -1.262000000  -3.240000000   2.462000000
  N   -1.099000000  -2.528000000   3.352000000
 Br   -0.916000000  -6.190000000   1.874000000
  F   -2.962000000  -4.285000000   0.856000000
