16
charge=0 charge_a=0 charge_b=0 selection_a=1-4 selection_b=5-16 scaling=1.0 benchmark_Eint=-9.186 benchmark_unit=kcal/mol group=P
  P   -0.423000000  -0.236000000  -0.258000000
  F   -1.812000000  -0.669000000  -1.019000000
  H   -0.754000000   1.129000000  -0.088000000
  H   -0.839000000  -0.591000000   1.049000000
  O    1.412000000   0.678000000   1.189000000
  N    2.565000000   0.411000000   0.680000000
  C    3.413000000   1.422000000   0.353000000
  C    2.940000000  -0.876000000   0.454000000
  C    4.650000000   1.162000000  -0.191000000
  C    4.170000000  -1.168000000  -0.092000000
  C    5.050000000  -0.148000000  -0.424000000
  H    3.025000000   2.405000000   0.560000000
  H    2.204000000  -1.609000000   0.734000000
  H    5.293000000   1.996000000  -0.432000000
  H    4.428000000  -2.204000000  -0.254000000
  H    6.017000000  -0.365000000  -0.851000000
