21
charge=0 charge_a=0 charge_b=0 selection_a=1-10 selection_b=11-21 scaling=1.25 benchmark_Eint=-3.772 benchmark_unit=kcal/mol group=P
  O   -0.604000000   1.329000000   0.137000000
  C   -0.260000000   2.485000000   0.015000000
  C    1.167000000   2.922000000   0.235000000
  C   -1.245000000   3.560000000  -0.372000000
  H    1.609000000   3.181000000  -0.729000000
  H    1.206000000   3.819000000   0.853000000
  H    1.747000000   2.126000000   0.688000000
  H   -2.202000000   3.119000000  -0.632000000
  H   -0.861000000   4.148000000  -1.207000000
  H   -1.376000000   4.248000000   0.465000000
  F    1.849000000  -0.696750000  -1.156250000
  C    1.158000000  -1.836750000  -1.312250000
  F    1.341000000  -2.828750000   2.636750000
  F    1.940000000  -0.905750000   1.826750000
  F    0.250000000  -1.646750000  -2.284250000
  F    2.013000000  -2.772750000  -1.735250000
  F    2.832000000  -2.724750000   1.065750000
  N    0.186000000  -5.184750000  -0.031250000
  C    1.691000000  -2.186750000   1.510750000
  C    0.285000000  -4.043750000   0.083750000
  P    0.211000000  -2.274750000   0.300750000
