18
charge=0 charge_a=0 charge_b=0 selection_a=1-11 selection_b=12-18 scaling=1.05 benchmark_Eint=-4.433 benchmark_unit=kcal/mol group=P
  C   -1.881000000   0.325000000   0.815000000
  P   -0.708000000  -0.560000000  -0.412000000
  C   -0.871000000  -2.178000000   0.313000000
  N   -0.839000000  -3.230000000   0.780000000
  F   -2.183000000   1.546000000   0.346000000
  F   -1.228000000   0.469000000   1.977000000
  F   -3.031000000  -0.308000000   1.067000000
  C   -1.950000000  -0.853000000  -1.840000000
  F   -3.082000000  -1.478000000  -1.508000000
  F   -1.325000000  -1.600000000  -2.767000000
  F   -2.273000000   0.322000000  -2.396000000
  O   -0.048600000   2.495500000  -1.792750000
  N    0.469400000   3.126500000  -0.886750000
  C    0.733400000   4.577500000  -1.128750000
  O    0.758400000   2.676500000   0.206250000
  H   -0.178600000   5.104500000  -0.859750000
  H    0.947400000   4.708500000  -2.181750000
  H    1.552400000   4.881500000  -0.487750000
