17
charge=0 charge_a=0 charge_b=0 selection_a=1-10 selection_b=11-17 scaling=0.85 benchmark_Eint=-2.779 benchmark_unit=kcal/mol group=P
  C    2.234000000   2.770000000  -1.311000000
  C    0.977000000   3.601000000  -1.395000000
  C    1.084000000   4.918000000  -2.123000000
  O   -0.073000000   3.232000000  -0.914000000
  H    2.372000000   2.257000000  -2.266000000
  H    3.110000000   3.397000000  -1.153000000
  H    2.153000000   2.024000000  -0.528000000
  H    0.101000000   5.360000000  -2.253000000
  H    1.569000000   4.781000000  -3.090000000
  H    1.715000000   5.597000000  -1.546000000
  P   -0.753000000   0.993100000  -0.320700000
  S   -1.290000000  -1.071900000   0.135300000
  P    0.471000000  -2.227900000   0.476300000
  F    1.471000000  -1.629900000  -0.608700000
  F    0.098000000   0.757100000  -1.642700000
  F    0.469000000   1.179100000   0.677300000
  F    1.106000000  -1.492900000   1.737300000
