20
charge=0 charge_a=0 charge_b=0 selection_a=1-9 selection_b=10-20 scaling=1.5 benchmark_Eint=-0.911 benchmark_unit=kcal/mol group=P
  C   -2.303000000  -1.097000000  -0.538000000
  O   -1.459000000  -0.046000000  -0.743000000
  C   -1.955000000   1.008000000  -0.033000000
  C   -3.088000000   0.645000000   0.613000000
  C   -3.315000000  -0.731000000   0.282000000
  H   -3.691000000   1.272000000   1.245000000
  H   -4.124000000  -1.356000000   0.615000000
  H   -1.399000000   1.924000000  -0.098000000
  H   -2.041000000  -2.013000000  -1.031000000
  F    1.564000000  -1.155500000   2.120000000
  C    2.750000000  -0.538500000   2.187000000
  P    3.149000000   0.243500000   0.487000000
  C    4.853000000   0.614500000   0.835000000
  N    5.930000000   0.977500000   1.016000000
  F    2.655000000   0.463500000   3.077000000
  F    3.648000000  -1.412500000   2.645000000
  C    3.479000000  -1.355500000  -0.510000000
  F    4.386000000  -2.183500000   0.013000000
  F    3.906000000  -0.990500000  -1.730000000
  F    2.332000000  -2.035500000  -0.651000000
