17
charge=0 charge_a=0 charge_b=0 selection_a=1-10 selection_b=11-17 scaling=0.85 benchmark_Eint=-6.567 benchmark_unit=kcal/mol group=P
  O   -0.776000000   1.195000000   0.187000000
  C   -0.281000000   2.303000000   0.083000000
  C    1.207000000   2.512000000   0.039000000
  C   -1.151000000   3.524000000  -0.032000000
  H    1.523000000   2.461000000  -1.006000000
  H    1.486000000   3.491000000   0.423000000
  H    1.726000000   1.731000000   0.586000000
  H   -2.195000000   3.244000000  -0.131000000
  H   -0.838000000   4.130000000  -0.884000000
  H   -1.019000000   4.141000000   0.858000000
  N    0.794700000  -3.746050000  -0.182300000
  N    1.377700000  -0.102050000   2.348700000
  C    0.814700000  -0.458050000   1.411700000
  N    1.199700000   0.231950000  -2.205300000
  C    0.712700000  -0.266050000  -1.290300000
  C    0.498700000  -2.638050000  -0.091300000
  P   -0.213300000  -0.992050000   0.052700000
