16
charge=0 charge_a=0 charge_b=0 selection_a=1-9 selection_b=10-16 scaling=0.85 benchmark_Eint=-3.398 benchmark_unit=kcal/mol group=P
  O   -1.365000000  -0.522000000   0.190000000
  C   -3.318000000   0.544000000   0.276000000
  C   -3.366000000  -0.423000000  -0.782000000
  C   -2.090000000   0.445000000   0.831000000
  C   -2.164000000  -1.040000000  -0.793000000
  H   -4.101000000   1.215000000   0.581000000
  H   -4.193000000  -0.630000000  -1.437000000
  H   -1.595000000   0.938000000   1.647000000
  H   -1.733000000  -1.830000000  -1.379000000
  N    3.913700000   0.049950000  -0.573200000
  N    0.541700000  -2.949050000  -0.814200000
  C    0.776700000  -1.860050000  -0.529200000
  N    0.696700000   0.170950000   2.598800000
  C    0.868700000  -0.025050000   1.478800000
  C    2.784700000  -0.085050000  -0.398200000
  P    0.999700000  -0.108050000  -0.296200000
