14
charge=0 charge_a=0 charge_b=0 selection_a=1-7 selection_b=8-14 scaling=1.0 benchmark_Eint=-8.407 benchmark_unit=kcal/mol group=P
  O    1.088000000   0.716000000   1.042000000
  O    0.220000000   2.301000000  -0.142000000
  N    1.154000000   1.610000000   0.206000000
  C    2.466000000   1.803000000  -0.475000000
  H    2.513000000   2.823000000  -0.835000000
  H    2.469000000   1.098000000  -1.304000000
  H    3.250000000   1.562000000   0.231000000
  N   -3.380000000  -2.758000000  -0.291000000
  N    0.267000000  -2.516000000   2.342000000
  C   -0.331000000  -1.909000000   1.569000000
  N    0.361000000  -0.762000000  -1.873000000
  C   -0.293000000  -0.892000000  -0.936000000
  C   -2.502000000  -2.076000000   0.006000000
  P   -1.314000000  -0.844000000   0.531000000
