16
charge=0 charge_a=0 charge_b=0 selection_a=1-4 selection_b=5-16 scaling=1.1 benchmark_Eint=-8.236 benchmark_unit=kcal/mol group=P
  P   -0.423000000  -0.236000000  -0.258000000
  F   -1.812000000  -0.669000000  -1.019000000
  H   -0.754000000   1.129000000  -0.088000000
  H   -0.839000000  -0.591000000   1.049000000
  O    1.595500000   0.769400000   1.333700000
  N    2.748500000   0.502400000   0.824700000
  C    3.596500000   1.513400000   0.497700000
  C    3.123500000  -0.784600000   0.598700000
  C    4.833500000   1.253400000  -0.046300000
  C    4.353500000  -1.076600000   0.052700000
  C    5.233500000  -0.056600000  -0.279300000
  H    3.208500000   2.496400000   0.704700000
  H    2.387500000  -1.517600000   0.878700000
  H    5.476500000   2.087400000  -0.287300000
  H    4.611500000  -2.112600000  -0.109300000
  H    6.200500000  -0.273600000  -0.706300000
