17
charge=0 charge_a=0 charge_b=0 selection_a=1-10 selection_b=11-17 scaling=1.5 benchmark_Eint=-1.656 benchmark_unit=kcal/mol group=P
  C    2.234000000   2.770000000  -1.311000000
  C    0.977000000   3.601000000  -1.395000000
  C    1.084000000   4.918000000  -2.123000000
  O   -0.073000000   3.232000000  -0.914000000
  H    2.372000000   2.257000000  -2.266000000
  H    3.110000000   3.397000000  -1.153000000
  H    2.153000000   2.024000000  -0.528000000
  H    0.101000000   5.360000000  -2.253000000
  H    1.569000000   4.781000000  -3.090000000
  H    1.715000000   5.597000000  -1.546000000
  P   -1.273000000  -0.719000000   0.133000000
  S   -1.810000000  -2.784000000   0.589000000
  P   -0.049000000  -3.940000000   0.930000000
  F    0.951000000  -3.342000000  -0.155000000
  F   -0.422000000  -0.955000000  -1.189000000
  F   -0.051000000  -0.533000000   1.131000000
  F    0.586000000  -3.205000000   2.191000000
