14
charge=0 charge_a=0 charge_b=0 selection_a=1-9 selection_b=10-14 scaling=1.1 benchmark_Eint=-4.374 benchmark_unit=kcal/mol group=P
  C   -3.098000000   1.588000000  -1.845000000
  O   -2.737000000   1.307000000  -0.559000000
  C   -2.886000000   2.457000000   0.163000000
  C   -3.330000000   3.451000000  -0.640000000
  C   -3.469000000   2.885000000  -1.950000000
  H   -3.536000000   4.463000000  -0.343000000
  H   -3.800000000   3.382000000  -2.843000000
  H   -2.638000000   2.390000000   1.206000000
  H   -3.035000000   0.774000000  -2.542000000
  P   -1.989000000  -1.721300000   0.263800000
  C   -1.874000000  -0.762300000   1.788800000
  N   -1.711000000  -0.050300000   2.678800000
 Br   -1.528000000  -3.712300000   1.200800000
  F   -3.574000000  -1.807300000   0.182800000
