20
charge=0 charge_a=0 charge_b=0 selection_a=1-9 selection_b=10-20 scaling=1.1 benchmark_Eint=-3.188 benchmark_unit=kcal/mol group=P
  C   -2.303000000  -1.097000000  -0.538000000
  O   -1.459000000  -0.046000000  -0.743000000
  C   -1.955000000   1.008000000  -0.033000000
  C   -3.088000000   0.645000000   0.613000000
  C   -3.315000000  -0.731000000   0.282000000
  H   -3.691000000   1.272000000   1.245000000
  H   -4.124000000  -1.356000000   0.615000000
  H   -1.399000000   1.924000000  -0.098000000
  H   -2.041000000  -2.013000000  -1.031000000
  F    0.335200000  -1.232700000   1.792000000
  C    1.521200000  -0.615700000   1.859000000
  P    1.920200000   0.166300000   0.159000000
  C    3.624200000   0.537300000   0.507000000
  N    4.701200000   0.900300000   0.688000000
  F    1.426200000   0.386300000   2.749000000
  F    2.419200000  -1.489700000   2.317000000
  C    2.250200000  -1.432700000  -0.838000000
  F    3.157200000  -2.260700000  -0.315000000
  F    2.677200000  -1.067700000  -2.058000000
  F    1.103200000  -2.112700000  -0.979000000
