16
charge=0 charge_a=0 charge_b=0 selection_a=1-4 selection_b=5-16 scaling=1.05 benchmark_Eint=-8.841 benchmark_unit=kcal/mol group=P
  P   -0.423000000  -0.236000000  -0.258000000
  F   -1.812000000  -0.669000000  -1.019000000
  H   -0.754000000   1.129000000  -0.088000000
  H   -0.839000000  -0.591000000   1.049000000
  O    1.503750000   0.723700000   1.261350000
  N    2.656750000   0.456700000   0.752350000
  C    3.504750000   1.467700000   0.425350000
  C    3.031750000  -0.830300000   0.526350000
  C    4.741750000   1.207700000  -0.118650000
  C    4.261750000  -1.122300000  -0.019650000
  C    5.141750000  -0.102300000  -0.351650000
  H    3.116750000   2.450700000   0.632350000
  H    2.295750000  -1.563300000   0.806350000
  H    5.384750000   2.041700000  -0.359650000
  H    4.519750000  -2.158300000  -0.181650000
  H    6.108750000  -0.319300000  -0.778650000
