17
charge=0 charge_a=0 charge_b=0 selection_a=1-10 selection_b=11-17 scaling=0.9 benchmark_Eint=-4.457 benchmark_unit=kcal/mol group=P
  C    2.234000000   2.770000000  -1.311000000
  C    0.977000000   3.601000000  -1.395000000
  C    1.084000000   4.918000000  -2.123000000
  O   -0.073000000   3.232000000  -0.914000000
  H    2.372000000   2.257000000  -2.266000000
  H    3.110000000   3.397000000  -1.153000000
  H    2.153000000   2.024000000  -0.528000000
  H    0.101000000   5.360000000  -2.253000000
  H    1.569000000   4.781000000  -3.090000000
  H    1.715000000   5.597000000  -1.546000000
  P   -0.793000000   0.861400000  -0.285800000
  S   -1.330000000  -1.203600000   0.170200000
  P    0.431000000  -2.359600000   0.511200000
  F    1.431000000  -1.761600000  -0.573800000
  F    0.058000000   0.625400000  -1.607800000
  F    0.429000000   1.047400000   0.712200000
  F    1.066000000  -1.624600000   1.772200000
