11
charge=0 charge_a=0 charge_b=0 selection_a=1-6 selection_b=7-11 scaling=1.5 benchmark_Eint=-3.262 benchmark_unit=kcal/mol group=As
  N   -1.340000000  -0.600000000   1.139000000
  C   -3.289000000   0.129000000  -0.417000000
  C   -2.218000000  -0.283000000   0.469000000
  H   -4.022000000  -0.669000000  -0.519000000
  H   -2.862000000   0.355000000  -1.394000000
  H   -3.780000000   1.018000000  -0.025000000
 Br    4.763000000   0.552000000  -1.323000000
  F    2.429000000   1.617000000   0.459000000
  N    0.925000000   0.576000000  -2.765000000
  C    1.628000000   0.447000000  -1.861000000
 As    2.695000000   0.057000000  -0.271000000
