13
charge=0 charge_a=0 charge_b=0 selection_a=1-6 selection_b=7-13 scaling=1.1 benchmark_Eint=-9.662 benchmark_unit=kcal/mol group=As
  N   -1.302000000  -0.581000000   1.085000000
  C   -3.232000000   0.149000000  -0.490000000
  C   -2.174000000  -0.264000000   0.409000000
  H   -4.010000000  -0.611000000  -0.532000000
  H   -2.809000000   0.286000000  -1.485000000
  H   -3.666000000   1.088000000  -0.152000000
  N    4.455800000   0.492500000  -0.942200000
  N    1.083800000   2.467500000   1.483800000
  C    1.317800000   1.478500000   0.945800000
  N    0.081800000   0.113500000  -2.375200000
  C    0.729800000   0.045500000  -1.428200000
  C    3.389800000   0.302500000  -0.553200000
 As    1.698800000  -0.256500000   0.213800000
