20
charge=0 charge_a=0 charge_b=0 selection_a=1-13 selection_b=14-20 scaling=1.1 benchmark_Eint=-17.088 benchmark_unit=kcal/mol group=As
  N   -0.026000000   0.128000000  -1.317000000
  C   -0.080000000  -1.284000000  -1.696000000
  C   -1.203000000   0.846000000  -1.807000000
  C    1.209000000   0.754000000  -1.797000000
  H   -0.978000000  -1.742000000  -1.283000000
  H    0.792000000  -1.803000000  -1.307000000
  H   -0.103000000  -1.405000000  -2.785000000
  H   -2.106000000   0.397000000  -1.393000000
  H   -1.269000000   0.807000000  -2.900000000
  H   -1.153000000   1.887000000  -1.498000000
  H    1.244000000   1.790000000  -1.470000000
  H    1.266000000   0.727000000  -2.891000000
  H    2.068000000   0.227000000  -1.389000000
  N   -0.509600000   0.180500000   4.629400000
  N    0.167400000   3.030500000   1.083400000
  C    0.010400000   1.913500000   1.309400000
  N    2.371400000  -1.149500000   1.300400000
  C    1.353400000  -0.633500000   1.441400000
  C   -0.372600000   0.193500000   3.485400000
 As   -0.439600000   0.056500000   1.514400000
