13
charge=0 charge_a=0 charge_b=0 selection_a=1-6 selection_b=7-13 scaling=1.05 benchmark_Eint=-10.342 benchmark_unit=kcal/mol group=As
  N   -1.302000000  -0.581000000   1.085000000
  C   -3.232000000   0.149000000  -0.490000000
  C   -2.174000000  -0.264000000   0.409000000
  H   -4.010000000  -0.611000000  -0.532000000
  H   -2.809000000   0.286000000  -1.485000000
  H   -3.666000000   1.088000000  -0.152000000
  N    4.319400000   0.477750000  -0.902600000
  N    0.947400000   2.452750000   1.523400000
  C    1.181400000   1.463750000   0.985400000
  N   -0.054600000   0.098750000  -2.335600000
  C    0.593400000   0.030750000  -1.388600000
  C    3.253400000   0.287750000  -0.513600000
 As    1.562400000  -0.271250000   0.253400000
