20
charge=0 charge_a=0 charge_b=0 selection_a=1-13 selection_b=14-20 scaling=2.0 benchmark_Eint=-1.123 benchmark_unit=kcal/mol group=As
  N   -0.047000000   0.104000000  -1.288000000
  C   -0.263000000  -1.278000000  -1.706000000
  C   -1.040000000   1.002000000  -1.870000000
  C    1.316000000   0.547000000  -1.582000000
  H   -1.262000000  -1.599000000  -1.411000000
  H    0.468000000  -1.922000000  -1.223000000
  H   -0.171000000  -1.391000000  -2.793000000
  H   -2.040000000   0.684000000  -1.574000000
  H   -0.989000000   1.006000000  -2.965000000
  H   -0.873000000   2.012000000  -1.506000000
  H    1.456000000   1.556000000  -1.206000000
  H    1.512000000   0.534000000  -2.661000000
  H    2.024000000  -0.108000000  -1.082000000
  F    0.197000000   3.104000000   6.129000000
  F    1.873000000   1.219000000   5.623000000
 As   -0.919000000   0.158000000   3.666000000
  F    0.594000000  -0.718000000   3.647000000
  F   -0.268000000   1.762000000   3.453000000
 As    0.622000000   1.544000000   6.799000000
  S   -1.047000000   0.286000000   6.012000000
