11
charge=0 charge_a=0 charge_b=0 selection_a=1-6 selection_b=7-11 scaling=2.0 benchmark_Eint=-1.198 benchmark_unit=kcal/mol group=As
  N   -1.340000000  -0.600000000   1.139000000
  C   -3.289000000   0.129000000  -0.417000000
  C   -2.218000000  -0.283000000   0.469000000
  H   -4.022000000  -0.669000000  -0.519000000
  H   -2.862000000   0.355000000  -1.394000000
  H   -3.780000000   1.018000000  -0.025000000
 Br    6.108000000   0.771000000  -1.793000000
  F    3.774000000   1.836000000  -0.011000000
  N    2.270000000   0.795000000  -3.235000000
  C    2.973000000   0.666000000  -2.331000000
 As    4.040000000   0.276000000  -0.741000000
