18
charge=0 charge_a=0 charge_b=0 selection_a=1-13 selection_b=14-18 scaling=1.0 benchmark_Eint=-19.785 benchmark_unit=kcal/mol group=As
  N    0.082000000   0.036000000  -1.337000000
  C   -0.637000000  -1.168000000  -1.758000000
  C   -0.638000000   1.246000000  -1.744000000
  C    1.455000000   0.034000000  -1.840000000
  H   -1.638000000  -1.160000000  -1.333000000
  H   -0.111000000  -2.053000000  -1.405000000
  H   -0.716000000  -1.222000000  -2.849000000
  H   -1.625000000   1.247000000  -1.290000000
  H   -0.743000000   1.291000000  -2.833000000
  H   -0.096000000   2.124000000  -1.405000000
  H    1.969000000   0.930000000  -1.503000000
  H    1.479000000   0.003000000  -2.935000000
  H    1.982000000  -0.840000000  -1.460000000
 Br    0.197000000  -0.245000000   3.577000000
  F   -1.469000000   0.139000000   1.005000000
  N    1.445000000   2.549000000   0.887000000
  C    0.932000000   1.530000000   1.047000000
 As    0.231000000  -0.280000000   1.148000000
