10
charge=0 charge_a=0 charge_b=0 selection_a=1-6 selection_b=7-10 scaling=2.0 benchmark_Eint=-0.921 benchmark_unit=kcal/mol group=As
  N   -1.319000000   0.099000000  -0.163000000
  C   -3.912000000   0.004000000  -0.017000000
  C   -2.463000000   0.056000000  -0.098000000
  H   -4.217000000  -0.700000000   0.756000000
  H   -4.327000000  -0.318000000  -0.971000000
  H   -4.308000000   0.988000000   0.225000000
 As    4.177000000  -0.423000000   0.319000000
  F    5.952000000  -0.286000000   0.141000000
  H    3.936000000   1.086000000   0.298000000
  H    3.912000000  -0.533000000  -1.182000000
