21
charge=0 charge_a=0 charge_b=0 selection_a=1-10 selection_b=11-21 scaling=0.8 benchmark_Eint=-0.508 benchmark_unit=kcal/mol group=As
  N   -1.390000000  -0.186000000  -0.004000000
  N   -4.145000000   0.153000000   0.179000000
  C   -2.221000000  -1.224000000  -0.061000000
  C   -3.596000000  -1.050000000   0.030000000
  C   -1.933000000   1.018000000   0.143000000
  C   -3.310000000   1.186000000   0.235000000
  H   -1.782000000  -2.205000000  -0.180000000
  H   -4.265000000  -1.900000000  -0.017000000
  H   -1.260000000   1.865000000   0.188000000
  H   -3.742000000   2.170000000   0.356000000
  F   -0.058800000  -2.247600000   1.225600000
  C    0.706200000  -1.174600000   1.482600000
  F    1.421200000  -0.908600000  -2.686400000
  F   -0.294800000  -1.913600000  -1.824400000
  F    0.119200000  -0.480600000   2.474600000
  F    1.882200000  -1.612600000   1.933600000
  F    1.702200000  -2.465600000  -1.201400000
  N    3.909200000   0.377400000  -0.062400000
  C    0.928200000  -1.433600000  -1.552400000
  C    2.780200000   0.156400000  -0.087400000
 As    0.845200000   0.060400000  -0.154400000
