10
charge=0 charge_a=0 charge_b=0 selection_a=1-6 selection_b=7-10 scaling=0.85 benchmark_Eint=-3.655 benchmark_unit=kcal/mol group=As
  N   -1.319000000   0.099000000  -0.163000000
  C   -3.912000000   0.004000000  -0.017000000
  C   -2.463000000   0.056000000  -0.098000000
  H   -4.217000000  -0.700000000   0.756000000
  H   -4.327000000  -0.318000000  -0.971000000
  H   -4.308000000   0.988000000   0.225000000
 As    1.016800000  -0.122850000   0.041850000
  F    2.791800000   0.014150000  -0.136150000
  H    0.775800000   1.386150000   0.020850000
  H    0.751800000  -0.232850000  -1.459150000
