14
charge=0 charge_a=0 charge_b=0 selection_a=1-10 selection_b=11-14 scaling=1.05 benchmark_Eint=-8.812 benchmark_unit=kcal/mol group=As
  N   -1.353000000  -0.015000000   0.000000000
  N   -4.134000000  -0.029000000   0.000000000
  C   -2.040000000  -1.155000000   0.000000000
  C   -3.429000000  -1.158000000   0.000000000
  C   -2.051000000   1.117000000   0.000000000
  C   -3.441000000   1.106000000   0.000000000
  H   -1.471000000  -2.076000000   0.000000000
  H   -3.981000000  -2.089000000   0.000000000
  H   -1.489000000   2.042000000   0.000000000
  H   -4.002000000   2.031000000   0.000000000
 As    1.413750000   0.170850000   0.000000000
  F    3.183750000  -0.142150000   0.000000000
  H    1.128750000  -0.849150000  -1.101000000
  H    1.129750000  -0.849150000   1.101000000
