13
charge=0 charge_a=0 charge_b=0 selection_a=1-6 selection_b=7-13 scaling=0.8 benchmark_Eint=0.395 benchmark_unit=kcal/mol group=As
  N   -1.598000000  -0.738000000   1.615000000
  C   -2.494000000   0.365000000  -0.562000000
  C   -2.018000000  -0.252000000   0.662000000
  H   -3.428000000  -0.094000000  -0.880000000
  H   -1.744000000   0.233000000  -1.340000000
  H   -2.653000000   1.430000000  -0.405000000
  F    2.119600000   2.694200000  -1.098800000
  F    0.958600000   0.868200000  -2.482800000
 As    0.739600000  -0.486800000   0.742200000
  F   -0.057400000  -1.240800000  -0.615800000
  F    0.068600000   1.091200000   0.443200000
 As    2.572600000   1.244200000  -1.948800000
  S    2.794600000  -0.184800000  -0.211800000
