24
charge=0 charge_a=0 charge_b=0 selection_a=1-13 selection_b=14-24 scaling=1.25 benchmark_Eint=-6.948 benchmark_unit=kcal/mol group=As
  N    0.053000000   0.124000000  -1.453000000
  C   -1.089000000  -0.764000000  -1.645000000
  C   -0.155000000   1.399000000  -2.133000000
  C    1.282000000  -0.516000000  -1.910000000
  H   -1.997000000  -0.281000000  -1.292000000
  H   -0.942000000  -1.683000000  -1.078000000
  H   -1.225000000  -1.032000000  -2.702000000
  H   -1.067000000   1.865000000  -1.769000000
  H   -0.240000000   1.269000000  -3.221000000
  H    0.678000000   2.066000000  -1.927000000
  H    2.127000000   0.149000000  -1.751000000
  H    1.237000000  -0.772000000  -2.977000000
  H    1.451000000  -1.435000000  -1.349000000
  F    2.126000000   1.761750000   0.915000000
  C    2.009000000   1.137750000   2.099000000
  F   -2.157000000   0.377750000   1.938000000
  F   -0.889000000   2.072750000   1.452000000
  F    3.177000000   0.522750000   2.350000000
  F    1.824000000   2.074750000   3.032000000
  F   -1.171000000   1.487750000   3.513000000
  N    0.822000000  -0.935250000   5.049000000
  C   -1.020000000   1.019750000   2.275000000
  C    0.716000000  -0.585250000   3.957000000
 As    0.543000000  -0.292250000   2.042000000
