17
charge=0 charge_a=0 charge_b=0 selection_a=1-6 selection_b=7-17 scaling=1.25 benchmark_Eint=-4.420 benchmark_unit=kcal/mol group=As
  N   -1.364000000   0.318000000   0.098000000
  C   -3.946000000   0.028000000   0.130000000
  C   -2.504000000   0.193000000   0.110000000
  H   -4.276000000  -0.237000000   1.133000000
  H   -4.238000000  -0.764000000  -0.558000000
  H   -4.433000000   0.954000000  -0.170000000
  F    1.045000000  -1.401000000   1.862750000
  C    2.084000000  -0.560000000   1.789750000
  F    2.782000000  -1.738000000  -2.206250000
  F    0.930000000  -2.113000000  -1.141250000
  F    1.801000000   0.518000000   2.541750000
  F    3.142000000  -1.168000000   2.331750000
  F    2.813000000  -2.759000000  -0.292250000
  N    5.450000000  -0.009000000  -0.030250000
  C    2.219000000  -1.783000000  -0.986250000
  C    4.300000000  -0.062000000  -0.034250000
 As    2.381000000   0.078000000  -0.143250000
