21
charge=0 charge_a=0 charge_b=0 selection_a=1-10 selection_b=11-21 scaling=1.0 benchmark_Eint=-9.589 benchmark_unit=kcal/mol group=As
  N   -1.390000000  -0.186000000  -0.004000000
  N   -4.145000000   0.153000000   0.179000000
  C   -2.221000000  -1.224000000  -0.061000000
  C   -3.596000000  -1.050000000   0.030000000
  C   -1.933000000   1.018000000   0.143000000
  C   -3.310000000   1.186000000   0.235000000
  H   -1.782000000  -2.205000000  -0.180000000
  H   -4.265000000  -1.900000000  -0.017000000
  H   -1.260000000   1.865000000   0.188000000
  H   -3.742000000   2.170000000   0.356000000
  F    0.500000000  -2.186000000   1.188000000
  C    1.265000000  -1.113000000   1.445000000
  F    1.980000000  -0.847000000  -2.724000000
  F    0.264000000  -1.852000000  -1.862000000
  F    0.678000000  -0.419000000   2.437000000
  F    2.441000000  -1.551000000   1.896000000
  F    2.261000000  -2.404000000  -1.239000000
  N    4.468000000   0.439000000  -0.100000000
  C    1.487000000  -1.372000000  -1.590000000
  C    3.339000000   0.218000000  -0.125000000
 As    1.404000000   0.122000000  -0.192000000
