17
charge=0 charge_a=0 charge_b=0 selection_a=1-10 selection_b=11-17 scaling=0.9 benchmark_Eint=-8.470 benchmark_unit=kcal/mol group=As
  N   -1.271000000   0.111000000  -0.093000000
  N   -4.026000000  -0.193000000   0.078000000
  C   -1.829000000  -1.095000000  -0.075000000
  C   -3.209000000  -1.241000000   0.011000000
  C   -2.078000000   1.165000000  -0.025000000
  C   -3.456000000   1.010000000   0.060000000
  H   -1.165000000  -1.946000000  -0.130000000
  H   -3.661000000  -2.224000000   0.025000000
  H   -1.620000000   2.146000000  -0.037000000
  H   -4.110000000   1.871000000   0.115000000
  F    3.474800000  -2.648400000  -1.480900000
  F    2.656800000  -2.811400000   0.951100000
 As    1.142800000   0.231600000  -0.066900000
  F    0.807800000  -0.461400000   1.496100000
  F    0.842800000  -1.220400000  -0.978900000
 As    4.016800000  -2.134400000   0.097100000
  S    3.450800000   0.038600000   0.034100000
