13
charge=0 charge_a=0 charge_b=0 selection_a=1-6 selection_b=7-13 scaling=0.95 benchmark_Eint=-6.690 benchmark_unit=kcal/mol group=As
  N   -1.598000000  -0.738000000   1.615000000
  C   -2.494000000   0.365000000  -0.562000000
  C   -2.018000000  -0.252000000   0.662000000
  H   -3.428000000  -0.094000000  -0.880000000
  H   -1.744000000   0.233000000  -1.340000000
  H   -2.653000000   1.430000000  -0.405000000
  F    2.557900000   2.741300000  -1.262450000
  F    1.396900000   0.915300000  -2.646450000
 As    1.177900000  -0.439700000   0.578550000
  F    0.380900000  -1.193700000  -0.779450000
  F    0.506900000   1.138300000   0.279550000
 As    3.010900000   1.291300000  -2.112450000
  S    3.232900000  -0.137700000  -0.375450000
