17
charge=0 charge_a=0 charge_b=0 selection_a=1-6 selection_b=7-17 scaling=1.0 benchmark_Eint=-6.699 benchmark_unit=kcal/mol group=As
  N   -1.364000000   0.318000000   0.098000000
  C   -3.946000000   0.028000000   0.130000000
  C   -2.504000000   0.193000000   0.110000000
  H   -4.276000000  -0.237000000   1.133000000
  H   -4.238000000  -0.764000000  -0.558000000
  H   -4.433000000   0.954000000  -0.170000000
  F    0.296000000  -1.353000000   1.911000000
  C    1.335000000  -0.512000000   1.838000000
  F    2.033000000  -1.690000000  -2.158000000
  F    0.181000000  -2.065000000  -1.093000000
  F    1.052000000   0.566000000   2.590000000
  F    2.393000000  -1.120000000   2.380000000
  F    2.064000000  -2.711000000  -0.244000000
  N    4.701000000   0.039000000   0.018000000
  C    1.470000000  -1.735000000  -0.938000000
  C    3.551000000  -0.014000000   0.014000000
 As    1.632000000   0.126000000  -0.095000000
