17
charge=0 charge_a=0 charge_b=0 selection_a=1-10 selection_b=11-17 scaling=2.0 benchmark_Eint=-0.679 benchmark_unit=kcal/mol group=As
  N   -1.271000000   0.111000000  -0.093000000
  N   -4.026000000  -0.193000000   0.078000000
  C   -1.829000000  -1.095000000  -0.075000000
  C   -3.209000000  -1.241000000   0.011000000
  C   -2.078000000   1.165000000  -0.025000000
  C   -3.456000000   1.010000000   0.060000000
  H   -1.165000000  -1.946000000  -0.130000000
  H   -3.661000000  -2.224000000   0.025000000
  H   -1.620000000   2.146000000  -0.037000000
  H   -4.110000000   1.871000000   0.115000000
  F    6.425000000  -2.501000000  -1.449000000
  F    5.607000000  -2.664000000   0.983000000
 As    4.093000000   0.379000000  -0.035000000
  F    3.758000000  -0.314000000   1.528000000
  F    3.793000000  -1.073000000  -0.947000000
 As    6.967000000  -1.987000000   0.129000000
  S    6.401000000   0.186000000   0.066000000
