10
charge=0 charge_a=0 charge_b=0 selection_a=1-6 selection_b=7-10 scaling=0.9 benchmark_Eint=-5.666 benchmark_unit=kcal/mol group=As
  N   -1.319000000   0.099000000  -0.163000000
  C   -3.912000000   0.004000000  -0.017000000
  C   -2.463000000   0.056000000  -0.098000000
  H   -4.217000000  -0.700000000   0.756000000
  H   -4.327000000  -0.318000000  -0.971000000
  H   -4.308000000   0.988000000   0.225000000
 As    1.154200000  -0.135900000   0.053900000
  F    2.929200000   0.001100000  -0.124100000
  H    0.913200000   1.373100000   0.032900000
  H    0.889200000  -0.245900000  -1.447100000
