20
charge=0 charge_a=0 charge_b=0 selection_a=1-13 selection_b=14-20 scaling=1.0 benchmark_Eint=-19.334 benchmark_unit=kcal/mol group=As
  N   -0.026000000   0.128000000  -1.317000000
  C   -0.080000000  -1.284000000  -1.696000000
  C   -1.203000000   0.846000000  -1.807000000
  C    1.209000000   0.754000000  -1.797000000
  H   -0.978000000  -1.742000000  -1.283000000
  H    0.792000000  -1.803000000  -1.307000000
  H   -0.103000000  -1.405000000  -2.785000000
  H   -2.106000000   0.397000000  -1.393000000
  H   -1.269000000   0.807000000  -2.900000000
  H   -1.153000000   1.887000000  -1.498000000
  H    1.244000000   1.790000000  -1.470000000
  H    1.266000000   0.727000000  -2.891000000
  H    2.068000000   0.227000000  -1.389000000
  N   -0.472000000   0.187000000   4.372000000
  N    0.205000000   3.037000000   0.826000000
  C    0.048000000   1.920000000   1.052000000
  N    2.409000000  -1.143000000   1.043000000
  C    1.391000000  -0.627000000   1.184000000
  C   -0.335000000   0.200000000   3.228000000
 As   -0.402000000   0.063000000   1.257000000
