13
charge=0 charge_a=0 charge_b=0 selection_a=1-6 selection_b=7-13 scaling=0.95 benchmark_Eint=-10.386 benchmark_unit=kcal/mol group=As
  N   -1.302000000  -0.581000000   1.085000000
  C   -3.232000000   0.149000000  -0.490000000
  C   -2.174000000  -0.264000000   0.409000000
  H   -4.010000000  -0.611000000  -0.532000000
  H   -2.809000000   0.286000000  -1.485000000
  H   -3.666000000   1.088000000  -0.152000000
  N    4.046600000   0.448250000  -0.823400000
  N    0.674600000   2.423250000   1.602600000
  C    0.908600000   1.434250000   1.064600000
  N   -0.327400000   0.069250000  -2.256400000
  C    0.320600000   0.001250000  -1.309400000
  C    2.980600000   0.258250000  -0.434400000
 As    1.289600000  -0.300750000   0.332600000
