17
charge=0 charge_a=0 charge_b=0 selection_a=1-13 selection_b=14-17 scaling=0.95 benchmark_Eint=-13.925 benchmark_unit=kcal/mol group=As
  N   -0.031000000   0.074000000  -1.354000000
  C   -0.459000000  -1.260000000  -1.765000000
  C   -0.942000000   1.099000000  -1.854000000
  C    1.345000000   0.340000000  -1.764000000
  H   -1.466000000  -1.449000000  -1.398000000
  H    0.209000000  -2.005000000  -1.337000000
  H   -0.455000000  -1.372000000  -2.857000000
  H   -1.947000000   0.903000000  -1.487000000
  H   -0.966000000   1.124000000  -2.951000000
  H   -0.626000000   2.075000000  -1.491000000
  H    1.651000000   1.318000000  -1.399000000
  H    1.455000000   0.321000000  -2.856000000
  H    2.005000000  -0.410000000  -1.334000000
 As   -0.276100000   0.113900000   1.050450000
  F   -0.034100000   0.230900000   2.842450000
  H    0.511900000   1.396900000   0.788450000
  H    0.955900000  -0.772100000   0.870450000
