17
charge=0 charge_a=0 charge_b=0 selection_a=1-10 selection_b=11-17 scaling=0.95 benchmark_Eint=-9.288 benchmark_unit=kcal/mol group=As
  N   -1.271000000   0.111000000  -0.093000000
  N   -4.026000000  -0.193000000   0.078000000
  C   -1.829000000  -1.095000000  -0.075000000
  C   -3.209000000  -1.241000000   0.011000000
  C   -2.078000000   1.165000000  -0.025000000
  C   -3.456000000   1.010000000   0.060000000
  H   -1.165000000  -1.946000000  -0.130000000
  H   -3.661000000  -2.224000000   0.025000000
  H   -1.620000000   2.146000000  -0.037000000
  H   -4.110000000   1.871000000   0.115000000
  F    3.608900000  -2.641700000  -1.479450000
  F    2.790900000  -2.804700000   0.952550000
 As    1.276900000   0.238300000  -0.065450000
  F    0.941900000  -0.454700000   1.497550000
  F    0.976900000  -1.213700000  -0.977450000
 As    4.150900000  -2.127700000   0.098550000
  S    3.584900000   0.045300000   0.035550000
