17
charge=0 charge_a=0 charge_b=0 selection_a=1-10 selection_b=11-17 scaling=2.0 benchmark_Eint=-1.222 benchmark_unit=kcal/mol group=As
  N   -1.326000000  -0.160000000  -0.174000000
  N   -4.101000000  -0.087000000  -0.022000000
  C   -2.077000000  -1.061000000  -0.805000000
  C   -3.464000000  -1.019000000  -0.725000000
  C   -1.957000000   0.774000000   0.536000000
  C   -3.344000000   0.807000000   0.609000000
  H   -1.566000000  -1.830000000  -1.367000000
  H   -4.068000000  -1.755000000  -1.239000000
  H   -1.351000000   1.496000000   1.065000000
  H   -3.849000000   1.567000000   1.190000000
  N    7.161000000   0.258000000  -0.679000000
  N    3.574000000  -2.557000000  -1.396000000
  C    3.817000000  -1.483000000  -1.064000000
  N    3.649000000   0.474000000   2.287000000
  C    3.851000000   0.346000000   1.162000000
  C    6.012000000   0.221000000  -0.631000000
 As    4.068000000   0.394000000  -0.746000000
