24
charge=0 charge_a=0 charge_b=0 selection_a=1-13 selection_b=14-24 scaling=0.8 benchmark_Eint=0.565 benchmark_unit=kcal/mol group=As
  N    0.053000000   0.124000000  -1.453000000
  C   -1.089000000  -0.764000000  -1.645000000
  C   -0.155000000   1.399000000  -2.133000000
  C    1.282000000  -0.516000000  -1.910000000
  H   -1.997000000  -0.281000000  -1.292000000
  H   -0.942000000  -1.683000000  -1.078000000
  H   -1.225000000  -1.032000000  -2.702000000
  H   -1.067000000   1.865000000  -1.769000000
  H   -0.240000000   1.269000000  -3.221000000
  H    0.678000000   2.066000000  -1.927000000
  H    2.127000000   0.149000000  -1.751000000
  H    1.237000000  -0.772000000  -2.977000000
  H    1.451000000  -1.435000000  -1.349000000
  F    1.949600000   1.911600000  -0.343200000
  C    1.832600000   1.287600000   0.840800000
  F   -2.333400000   0.527600000   0.679800000
  F   -1.065400000   2.222600000   0.193800000
  F    3.000600000   0.672600000   1.091800000
  F    1.647600000   2.224600000   1.773800000
  F   -1.347400000   1.637600000   2.254800000
  N    0.645600000  -0.785400000   3.790800000
  C   -1.196400000   1.169600000   1.016800000
  C    0.539600000  -0.435400000   2.698800000
 As    0.366600000  -0.142400000   0.783800000
