17
charge=0 charge_a=0 charge_b=0 selection_a=1-10 selection_b=11-17 scaling=1.1 benchmark_Eint=-11.770 benchmark_unit=kcal/mol group=As
  N   -1.326000000  -0.160000000  -0.174000000
  N   -4.101000000  -0.087000000  -0.022000000
  C   -2.077000000  -1.061000000  -0.805000000
  C   -3.464000000  -1.019000000  -0.725000000
  C   -1.957000000   0.774000000   0.536000000
  C   -3.344000000   0.807000000   0.609000000
  H   -1.566000000  -1.830000000  -1.367000000
  H   -4.068000000  -1.755000000  -1.239000000
  H   -1.351000000   1.496000000   1.065000000
  H   -3.849000000   1.567000000   1.190000000
  N    4.733700000   0.008700000  -0.421600000
  N    1.146700000  -2.806300000  -1.138600000
  C    1.389700000  -1.732300000  -0.806600000
  N    1.221700000   0.224700000   2.544400000
  C    1.423700000   0.096700000   1.419400000
  C    3.584700000  -0.028300000  -0.373600000
 As    1.640700000   0.144700000  -0.488600000
