17
charge=0 charge_a=0 charge_b=0 selection_a=1-10 selection_b=11-17 scaling=0.8 benchmark_Eint=-1.697 benchmark_unit=kcal/mol group=As
  N   -1.271000000   0.111000000  -0.093000000
  N   -4.026000000  -0.193000000   0.078000000
  C   -1.829000000  -1.095000000  -0.075000000
  C   -3.209000000  -1.241000000   0.011000000
  C   -2.078000000   1.165000000  -0.025000000
  C   -3.456000000   1.010000000   0.060000000
  H   -1.165000000  -1.946000000  -0.130000000
  H   -3.661000000  -2.224000000   0.025000000
  H   -1.620000000   2.146000000  -0.037000000
  H   -4.110000000   1.871000000   0.115000000
  F    3.206600000  -2.661800000  -1.483800000
  F    2.388600000  -2.824800000   0.948200000
 As    0.874600000   0.218200000  -0.069800000
  F    0.539600000  -0.474800000   1.493200000
  F    0.574600000  -1.233800000  -0.981800000
 As    3.748600000  -2.147800000   0.094200000
  S    3.182600000   0.025200000   0.031200000
