17
charge=0 charge_a=0 charge_b=0 selection_a=1-10 selection_b=11-17 scaling=0.85 benchmark_Eint=-8.029 benchmark_unit=kcal/mol group=As
  N   -1.326000000  -0.160000000  -0.174000000
  N   -4.101000000  -0.087000000  -0.022000000
  C   -2.077000000  -1.061000000  -0.805000000
  C   -3.464000000  -1.019000000  -0.725000000
  C   -1.957000000   0.774000000   0.536000000
  C   -3.344000000   0.807000000   0.609000000
  H   -1.566000000  -1.830000000  -1.367000000
  H   -4.068000000  -1.755000000  -1.239000000
  H   -1.351000000   1.496000000   1.065000000
  H   -3.849000000   1.567000000   1.190000000
  N    4.059450000  -0.060550000  -0.350100000
  N    0.472450000  -2.875550000  -1.067100000
  C    0.715450000  -1.801550000  -0.735100000
  N    0.547450000   0.155450000   2.615900000
  C    0.749450000   0.027450000   1.490900000
  C    2.910450000  -0.097550000  -0.302100000
 As    0.966450000   0.075450000  -0.417100000
