13
charge=0 charge_a=0 charge_b=0 selection_a=1-6 selection_b=7-13 scaling=0.9 benchmark_Eint=-8.991 benchmark_unit=kcal/mol group=As
  N   -1.302000000  -0.581000000   1.085000000
  C   -3.232000000   0.149000000  -0.490000000
  C   -2.174000000  -0.264000000   0.409000000
  H   -4.010000000  -0.611000000  -0.532000000
  H   -2.809000000   0.286000000  -1.485000000
  H   -3.666000000   1.088000000  -0.152000000
  N    3.910200000   0.433500000  -0.783800000
  N    0.538200000   2.408500000   1.642200000
  C    0.772200000   1.419500000   1.104200000
  N   -0.463800000   0.054500000  -2.216800000
  C    0.184200000  -0.013500000  -1.269800000
  C    2.844200000   0.243500000  -0.394800000
 As    1.153200000  -0.315500000   0.372200000
