17
charge=0 charge_a=0 charge_b=0 selection_a=1-10 selection_b=11-17 scaling=1.25 benchmark_Eint=-5.592 benchmark_unit=kcal/mol group=As
  N   -1.271000000   0.111000000  -0.093000000
  N   -4.026000000  -0.193000000   0.078000000
  C   -1.829000000  -1.095000000  -0.075000000
  C   -3.209000000  -1.241000000   0.011000000
  C   -2.078000000   1.165000000  -0.025000000
  C   -3.456000000   1.010000000   0.060000000
  H   -1.165000000  -1.946000000  -0.130000000
  H   -3.661000000  -2.224000000   0.025000000
  H   -1.620000000   2.146000000  -0.037000000
  H   -4.110000000   1.871000000   0.115000000
  F    4.413500000  -2.601500000  -1.470750000
  F    3.595500000  -2.764500000   0.961250000
 As    2.081500000   0.278500000  -0.056750000
  F    1.746500000  -0.414500000   1.506250000
  F    1.781500000  -1.173500000  -0.968750000
 As    4.955500000  -2.087500000   0.107250000
  S    4.389500000   0.085500000   0.044250000
