20
charge=0 charge_a=0 charge_b=0 selection_a=1-13 selection_b=14-20 scaling=0.9 benchmark_Eint=-17.619 benchmark_unit=kcal/mol group=As
  N   -0.026000000   0.128000000  -1.317000000
  C   -0.080000000  -1.284000000  -1.696000000
  C   -1.203000000   0.846000000  -1.807000000
  C    1.209000000   0.754000000  -1.797000000
  H   -0.978000000  -1.742000000  -1.283000000
  H    0.792000000  -1.803000000  -1.307000000
  H   -0.103000000  -1.405000000  -2.785000000
  H   -2.106000000   0.397000000  -1.393000000
  H   -1.269000000   0.807000000  -2.900000000
  H   -1.153000000   1.887000000  -1.498000000
  H    1.244000000   1.790000000  -1.470000000
  H    1.266000000   0.727000000  -2.891000000
  H    2.068000000   0.227000000  -1.389000000
  N   -0.434400000   0.193500000   4.114600000
  N    0.242600000   3.043500000   0.568600000
  C    0.085600000   1.926500000   0.794600000
  N    2.446600000  -1.136500000   0.785600000
  C    1.428600000  -0.620500000   0.926600000
  C   -0.297400000   0.206500000   2.970600000
 As   -0.364400000   0.069500000   0.999600000
