15
charge=0 charge_a=0 charge_b=0 selection_a=1-10 selection_b=11-15 scaling=0.9 benchmark_Eint=-11.305 benchmark_unit=kcal/mol group=As
  N   -1.345000000  -0.130000000   0.197000000
  N   -4.107000000  -0.059000000  -0.064000000
  C   -2.095000000  -1.177000000   0.530000000
  C   -3.478000000  -1.135000000   0.399000000
  C   -1.964000000   0.950000000  -0.273000000
  C   -3.348000000   0.980000000  -0.401000000
  H   -1.586000000  -2.062000000   0.887000000
  H   -4.084000000  -1.989000000   0.670000000
  H   -1.347000000   1.790000000  -0.559000000
  H   -3.848000000   1.859000000  -0.786000000
 Br    3.404200000  -0.049800000   0.409700000
  F    0.794200000   0.909200000  -0.964300000
  N    0.587200000  -2.858800000  -0.522300000
  C    0.799200000  -1.764800000  -0.231300000
 As    1.011200000   0.012200000   0.523700000
