15
charge=0 charge_a=0 charge_b=0 selection_a=1-10 selection_b=11-15 scaling=0.85 benchmark_Eint=-8.569 benchmark_unit=kcal/mol group=As
  N   -1.345000000  -0.130000000   0.197000000
  N   -4.107000000  -0.059000000  -0.064000000
  C   -2.095000000  -1.177000000   0.530000000
  C   -3.478000000  -1.135000000   0.399000000
  C   -1.964000000   0.950000000  -0.273000000
  C   -3.348000000   0.980000000  -0.401000000
  H   -1.586000000  -2.062000000   0.887000000
  H   -4.084000000  -1.989000000   0.670000000
  H   -1.347000000   1.790000000  -0.559000000
  H   -3.848000000   1.859000000  -0.786000000
 Br    3.273300000  -0.057700000   0.391550000
  F    0.663300000   0.901300000  -0.982450000
  N    0.456300000  -2.866700000  -0.540450000
  C    0.668300000  -1.772700000  -0.249450000
 As    0.880300000   0.004300000   0.505550000
