10
charge=0 charge_a=0 charge_b=0 selection_a=1-6 selection_b=7-10 scaling=1.25 benchmark_Eint=-4.337 benchmark_unit=kcal/mol group=As
  N   -1.319000000   0.099000000  -0.163000000
  C   -3.912000000   0.004000000  -0.017000000
  C   -2.463000000   0.056000000  -0.098000000
  H   -4.217000000  -0.700000000   0.756000000
  H   -4.327000000  -0.318000000  -0.971000000
  H   -4.308000000   0.988000000   0.225000000
 As    2.116000000  -0.227250000   0.138250000
  F    3.891000000  -0.090250000  -0.039750000
  H    1.875000000   1.281750000   0.117250000
  H    1.851000000  -0.337250000  -1.362750000
