17
charge=0 charge_a=0 charge_b=0 selection_a=1-10 selection_b=11-17 scaling=1.25 benchmark_Eint=-8.449 benchmark_unit=kcal/mol group=As
  N   -1.326000000  -0.160000000  -0.174000000
  N   -4.101000000  -0.087000000  -0.022000000
  C   -2.077000000  -1.061000000  -0.805000000
  C   -3.464000000  -1.019000000  -0.725000000
  C   -1.957000000   0.774000000   0.536000000
  C   -3.344000000   0.807000000   0.609000000
  H   -1.566000000  -1.830000000  -1.367000000
  H   -4.068000000  -1.755000000  -1.239000000
  H   -1.351000000   1.496000000   1.065000000
  H   -3.849000000   1.567000000   1.190000000
  N    5.138250000   0.050250000  -0.464500000
  N    1.551250000  -2.764750000  -1.181500000
  C    1.794250000  -1.690750000  -0.849500000
  N    1.626250000   0.266250000   2.501500000
  C    1.828250000   0.138250000   1.376500000
  C    3.989250000   0.013250000  -0.416500000
 As    2.045250000   0.186250000  -0.531500000
