20
charge=0 charge_a=0 charge_b=0 selection_a=1-13 selection_b=14-20 scaling=1.5 benchmark_Eint=-6.222 benchmark_unit=kcal/mol group=As
  N   -0.026000000   0.128000000  -1.317000000
  C   -0.080000000  -1.284000000  -1.696000000
  C   -1.203000000   0.846000000  -1.807000000
  C    1.209000000   0.754000000  -1.797000000
  H   -0.978000000  -1.742000000  -1.283000000
  H    0.792000000  -1.803000000  -1.307000000
  H   -0.103000000  -1.405000000  -2.785000000
  H   -2.106000000   0.397000000  -1.393000000
  H   -1.269000000   0.807000000  -2.900000000
  H   -1.153000000   1.887000000  -1.498000000
  H    1.244000000   1.790000000  -1.470000000
  H    1.266000000   0.727000000  -2.891000000
  H    2.068000000   0.227000000  -1.389000000
  N   -0.660000000   0.154500000   5.659000000
  N    0.017000000   3.004500000   2.113000000
  C   -0.140000000   1.887500000   2.339000000
  N    2.221000000  -1.175500000   2.330000000
  C    1.203000000  -0.659500000   2.471000000
  C   -0.523000000   0.167500000   4.515000000
 As   -0.590000000   0.030500000   2.544000000
