11
charge=0 charge_a=0 charge_b=0 selection_a=1-6 selection_b=7-11 scaling=1.05 benchmark_Eint=-8.847 benchmark_unit=kcal/mol group=As
  N   -1.340000000  -0.600000000   1.139000000
  C   -3.289000000   0.129000000  -0.417000000
  C   -2.218000000  -0.283000000   0.469000000
  H   -4.022000000  -0.669000000  -0.519000000
  H   -2.862000000   0.355000000  -1.394000000
  H   -3.780000000   1.018000000  -0.025000000
 Br    3.552500000   0.354900000  -0.900000000
  F    1.218500000   1.419900000   0.882000000
  N   -0.285500000   0.378900000  -2.342000000
  C    0.417500000   0.249900000  -1.438000000
 As    1.484500000  -0.140100000   0.152000000
