16
charge=0 charge_a=0 charge_b=0 selection_a=1-9 selection_b=10-16 scaling=1.1 benchmark_Eint=-3.903 benchmark_unit=kcal/mol group=As
  O   -1.316000000   0.233000000  -0.372000000
  C   -3.438000000   0.514000000   0.241000000
  C   -3.197000000  -0.885000000   0.035000000
  C   -2.269000000   1.143000000  -0.017000000
  C   -1.900000000  -1.000000000  -0.332000000
  H   -4.360000000   0.979000000   0.540000000
  H   -3.900000000  -1.690000000   0.149000000
  H   -1.959000000   2.171000000   0.000000000
  H   -1.262000000  -1.826000000  -0.580000000
  F    4.113100000  -2.738800000  -1.321800000
  F    3.185100000  -2.769800000   1.075200000
 As    1.908100000   0.279200000  -0.094800000
  F    1.431100000  -0.327800000   1.462200000
  F    1.520100000  -1.174800000  -0.965800000
 As    4.613100000  -2.208800000   0.260200000
  S    4.168100000   0.002200000   0.095200000
