13
charge=0 charge_a=0 charge_b=0 selection_a=1-9 selection_b=10-13 scaling=0.8 benchmark_Eint=1.855 benchmark_unit=kcal/mol group=As
  O   -1.348000000  -0.026000000   0.000000000
  C   -3.460000000   0.675000000   0.000000000
  C   -3.449000000  -0.759000000   0.000000000
  C   -2.166000000   1.067000000   0.000000000
  C   -2.149000000  -1.131000000   0.000000000
  H   -4.320000000   1.319000000   0.000000000
  H   -4.300000000  -1.416000000   0.000000000
  H   -1.674000000   2.021000000   0.000000000
  H   -1.644000000  -2.078000000   0.000000000
 As    0.884000000   0.132400000   0.000000000
  F    2.630000000  -0.204600000   0.000000000
  H    0.555000000  -0.881600000  -1.096000000
  H    0.555000000  -0.881600000   1.096000000
