16
charge=0 charge_a=0 charge_b=0 selection_a=1-4 selection_b=5-16 scaling=1.05 benchmark_Eint=-10.167 benchmark_unit=kcal/mol group=As
 As   -0.457000000  -0.067000000  -0.327000000
  F   -2.001000000  -0.567000000  -1.108000000
  H   -1.101000000   1.054000000   0.477000000
  H   -0.601000000  -1.063000000   0.822000000
  O    1.532750000   0.760400000   1.235400000
  N    2.687750000   0.483400000   0.733400000
  C    3.565750000   1.484400000   0.460400000
  C    3.031750000  -0.802600000   0.460400000
  C    4.803750000   1.213400000  -0.077600000
  C    4.261750000  -1.105600000  -0.082600000
  C    5.171750000  -0.095600000  -0.360600000
  H    3.200750000   2.468400000   0.702400000
  H    2.278750000  -1.529600000   0.710400000
  H    5.470750000   2.038400000  -0.276600000
  H    4.493750000  -2.140600000  -0.283600000
  H    6.137750000  -0.320600000  -0.785600000
