12
charge=0 charge_a=0 charge_b=0 selection_a=1-7 selection_b=8-12 scaling=1.25 benchmark_Eint=-5.084 benchmark_unit=kcal/mol group=As
  O    1.731000000   0.229000000  -0.351000000
  O    1.192000000   1.688000000  -1.854000000
  N    1.577000000   1.382000000  -0.748000000
  C    1.846000000   2.470000000   0.236000000
  H    1.979000000   3.394000000  -0.310000000
  H    2.720000000   2.187000000   0.812000000
  H    0.969000000   2.511000000   0.879000000
 Br   -3.062750000  -3.054250000   0.704500000
  F   -1.583750000  -1.434250000  -1.527500000
  N   -1.642750000   0.735750000   1.471500000
  C   -1.524750000  -0.271250000   0.925500000
 As   -1.072750000  -1.957250000   0.051500000
