11
charge=0 charge_a=0 charge_b=0 selection_a=1-7 selection_b=8-11 scaling=1.05 benchmark_Eint=-4.993 benchmark_unit=kcal/mol group=As
  O    1.473000000   0.458000000   0.157000000
  O    0.282000000   2.212000000  -0.283000000
  N    1.335000000   1.657000000  -0.051000000
  C    2.580000000   2.484000000  -0.012000000
  H    2.311000000   3.512000000  -0.211000000
  H    3.253000000   2.083000000  -0.763000000
  H    3.016000000   2.357000000   0.974000000
 As   -0.803400000  -1.471900000   0.151750000
  F   -2.368400000  -2.319900000   0.071750000
  H   -1.030400000  -0.659900000  -1.124250000
  H   -1.323400000  -0.320900000   1.014750000
