19
charge=0 charge_a=0 charge_b=0 selection_a=1-7 selection_b=8-19 scaling=2.0 benchmark_Eint=-3.189 benchmark_unit=kcal/mol group=As
  N   -3.680000000  -0.868000000  -0.822000000
  N    0.202000000  -2.477000000   1.041000000
  C   -0.297000000  -1.490000000   0.727000000
  N    0.367000000   0.734000000  -2.302000000
  C   -0.196000000   0.486000000  -1.329000000
  C   -2.647000000  -0.528000000  -0.444000000
 As   -1.038000000   0.258000000   0.390000000
  O    3.440000000   1.554000000   1.856000000
  N    4.558000000   1.035000000   1.412000000
  C    5.174000000   1.583000000   0.338000000
  C    5.091000000  -0.044000000   2.032000000
  C    6.350000000   1.050000000  -0.141000000
  C    6.265000000  -0.602000000   1.579000000
  C    6.912000000  -0.058000000   0.478000000
  H    4.668000000   2.431000000  -0.088000000
  H    4.523000000  -0.410000000   2.869000000
  H    6.810000000   1.508000000  -1.002000000
  H    6.658000000  -1.465000000   2.093000000
  H    7.831000000  -0.488000000   0.110000000
