18
charge=0 charge_a=0 charge_b=0 selection_a=1-7 selection_b=8-18 scaling=0.9 benchmark_Eint=-4.949 benchmark_unit=kcal/mol group=As
  O    1.750000000   0.278000000  -0.478000000
  O    2.160000000   1.787000000  -1.970000000
  N    1.835000000   1.439000000  -0.856000000
  C    1.478000000   2.502000000   0.132000000
  H    1.944000000   3.426000000  -0.186000000
  H    1.809000000   2.174000000   1.110000000
  H    0.395000000   2.586000000   0.115000000
  F   -0.271700000   0.628900000   1.636800000
  C   -0.650700000  -0.662100000   1.615800000
  F   -1.756700000  -0.573100000  -2.465200000
  F   -0.885700000   1.068900000  -1.342200000
  F    0.117300000  -1.332100000   2.489800000
  F   -1.911700000  -0.723100000   2.041800000
  F   -2.702700000   0.122900000  -0.644200000
  N   -2.484700000  -3.610100000  -0.028200000
  C   -1.526700000  -0.111100000  -1.229200000
  C   -1.728700000  -2.745100000  -0.085200000
 As   -0.322700000  -1.449100000  -0.251200000
