19
charge=0 charge_a=0 charge_b=0 selection_a=1-12 selection_b=13-19 scaling=1.25 benchmark_Eint=-11.495 benchmark_unit=kcal/mol group=As
  O    1.281000000  -1.205000000  -1.397000000
  N    2.242000000  -0.527000000  -0.821000000
  C    2.662000000   0.638000000  -1.365000000
  C    2.789000000  -0.983000000   0.330000000
  C    3.659000000   1.373000000  -0.762000000
  C    3.788000000  -0.275000000   0.959000000
  C    4.238000000   0.921000000   0.416000000
  H    2.147000000   0.923000000  -2.265000000
  H    2.368000000  -1.905000000   0.689000000
  H    3.966000000   2.300000000  -1.220000000
  H    4.199000000  -0.665000000   1.877000000
  H    5.016000000   1.489000000   0.902000000
  F   -2.697000000   3.337500000   0.113000000
  F   -1.533000000   2.146500000   2.073000000
 As   -1.414000000  -0.407500000  -0.447000000
  F   -0.653000000  -0.605500000   1.117000000
  F   -0.770000000   1.185500000  -0.760000000
 As   -3.163000000   2.321500000   1.461000000
  S   -3.467000000   0.367500000   0.435000000
