19
charge=0 charge_a=0 charge_b=0 selection_a=1-12 selection_b=13-19 scaling=2.0 benchmark_Eint=-2.151 benchmark_unit=kcal/mol group=As
  O    1.281000000  -1.205000000  -1.397000000
  N    2.242000000  -0.527000000  -0.821000000
  C    2.662000000   0.638000000  -1.365000000
  C    2.789000000  -0.983000000   0.330000000
  C    3.659000000   1.373000000  -0.762000000
  C    3.788000000  -0.275000000   0.959000000
  C    4.238000000   0.921000000   0.416000000
  H    2.147000000   0.923000000  -2.265000000
  H    2.368000000  -1.905000000   0.689000000
  H    3.966000000   2.300000000  -1.220000000
  H    4.199000000  -0.665000000   1.877000000
  H    5.016000000   1.489000000   0.902000000
  F   -4.314000000   3.816000000   0.683000000
  F   -3.150000000   2.625000000   2.643000000
 As   -3.031000000   0.071000000   0.123000000
  F   -2.270000000  -0.127000000   1.687000000
  F   -2.387000000   1.664000000  -0.190000000
 As   -4.780000000   2.800000000   2.031000000
  S   -5.084000000   0.846000000   1.005000000
