20
charge=0 charge_a=0 charge_b=0 selection_a=1-9 selection_b=10-20 scaling=1.5 benchmark_Eint=-1.303 benchmark_unit=kcal/mol group=As
  O   -1.480000000  -0.147000000   0.327000000
  C   -3.447000000   0.796000000  -0.128000000
  C   -3.627000000  -0.622000000  -0.021000000
  C   -2.132000000   1.030000000   0.090000000
  C   -2.410000000  -1.143000000   0.254000000
  H   -4.199000000   1.535000000  -0.338000000
  H   -4.544000000  -1.172000000  -0.135000000
  H   -1.529000000   1.917000000   0.115000000
  H   -2.045000000  -2.139000000   0.416000000
  F    1.969500000  -2.042000000   1.134500000
  C    3.006500000  -1.205000000   1.294500000
  F    3.329500000  -0.478000000  -2.858500000
  F    1.731500000  -1.597000000  -1.904500000
  F    2.855500000  -0.573000000   2.469500000
  F    4.119500000  -1.935000000   1.358500000
  F    3.795500000  -2.171000000  -1.585500000
  N    6.032500000   0.630000000  -0.239500000
  C    2.976500000  -1.128000000  -1.738500000
  C    4.906500000   0.389000000  -0.223500000
 As    2.997500000   0.210000000  -0.190500000
