19
charge=0 charge_a=0 charge_b=0 selection_a=1-12 selection_b=13-19 scaling=1.1 benchmark_Eint=-15.795 benchmark_unit=kcal/mol group=As
  O    1.281000000  -1.205000000  -1.397000000
  N    2.242000000  -0.527000000  -0.821000000
  C    2.662000000   0.638000000  -1.365000000
  C    2.789000000  -0.983000000   0.330000000
  C    3.659000000   1.373000000  -0.762000000
  C    3.788000000  -0.275000000   0.959000000
  C    4.238000000   0.921000000   0.416000000
  H    2.147000000   0.923000000  -2.265000000
  H    2.368000000  -1.905000000   0.689000000
  H    3.966000000   2.300000000  -1.220000000
  H    4.199000000  -0.665000000   1.877000000
  H    5.016000000   1.489000000   0.902000000
  F   -2.373600000   3.241800000  -0.001000000
  F   -1.209600000   2.050800000   1.959000000
 As   -1.090600000  -0.503200000  -0.561000000
  F   -0.329600000  -0.701200000   1.003000000
  F   -0.446600000   1.089800000  -0.874000000
 As   -2.839600000   2.225800000   1.347000000
  S   -3.143600000   0.271800000   0.321000000
