17
charge=0 charge_a=0 charge_b=0 selection_a=1-5 selection_b=6-17 scaling=0.85 benchmark_Eint=-16.759 benchmark_unit=kcal/mol group=As
 Br   -2.683000000   0.713000000   1.275000000
  F    0.026000000   1.683000000   0.122000000
  N    0.727000000  -1.392000000   2.087000000
  C    0.122000000  -0.776000000   1.324000000
 As   -0.786000000   0.143000000  -0.139000000
  O    0.919950000  -0.335550000  -1.065500000
  N    2.064950000  -0.111550000  -0.463500000
  C    2.566950000   1.144450000  -0.413500000
  C    2.723950000  -1.140550000   0.115500000
  C    3.762950000   1.391450000   0.222500000
  C    3.924950000  -0.929550000   0.755500000
  C    4.459950000   0.348450000   0.817500000
  H    1.954950000   1.891450000  -0.887500000
  H    2.228950000  -2.092550000   0.037500000
  H    4.134950000   2.403450000   0.249500000
  H    4.420950000  -1.771550000   1.212500000
  H    5.396950000   0.529450000   1.322500000
