14
charge=0 charge_a=0 charge_b=0 selection_a=1-7 selection_b=8-14 scaling=0.8 benchmark_Eint=-0.358 benchmark_unit=kcal/mol group=As
  O    2.984000000   2.117000000  -0.796000000
  O    1.733000000   0.450000000  -1.356000000
  N    2.017000000   1.402000000  -0.639000000
  C    1.101000000   1.693000000   0.505000000
  H    0.113000000   1.865000000   0.090000000
  H    1.488000000   2.555000000   1.031000000
  H    1.070000000   0.803000000   1.126000000
  F   -3.691800000  -0.035600000  -0.273200000
  F   -2.030800000  -0.460600000   1.638800000
 As   -0.003800000  -1.047600000  -1.155200000
  F    0.656200000  -1.030600000   0.461800000
  F   -0.816800000   0.485400000  -1.015200000
 As   -3.172800000  -1.382600000   0.701800000
  S   -1.789800000  -2.418600000  -0.755200000
