23
charge=0 charge_a=0 charge_b=0 selection_a=1-11 selection_b=12-23 scaling=0.85 benchmark_Eint=-9.627 benchmark_unit=kcal/mol group=As
  F    0.285000000  -1.291000000   1.678000000
  C   -1.004000000  -0.945000000   1.523000000
  F   -0.294000000   2.496000000  -0.815000000
  F    0.506000000   1.669000000   1.026000000
  F   -1.733000000  -2.075000000   1.561000000
  F   -1.347000000  -0.197000000   2.578000000
  F   -1.477000000   2.528000000   0.995000000
  N   -4.276000000   0.576000000   0.387000000
  C   -0.615000000   1.793000000   0.291000000
  C   -3.151000000   0.383000000   0.232000000
 As   -1.326000000  -0.047000000  -0.294000000
  O    0.771800000  -0.332600000  -0.909400000
  N    1.941800000  -0.053600000  -0.429400000
  C    2.516800000   1.147400000  -0.694400000
  C    2.600800000  -0.961600000   0.333600000
  C    3.761800000   1.459400000  -0.197400000
  C    3.847800000  -0.679600000   0.847600000
  C    4.449800000   0.544400000   0.587600000
  H    1.917800000   1.800400000  -1.304400000
  H    2.066800000  -1.881600000   0.489600000
  H    4.182800000   2.426400000  -0.430400000
  H    4.337800000  -1.428600000   1.450600000
  H    5.424800000   0.777400000   0.985600000
