17
charge=0 charge_a=0 charge_b=0 selection_a=1-10 selection_b=11-17 scaling=0.9 benchmark_Eint=-11.498 benchmark_unit=kcal/mol group=As
  O   -0.822000000   1.225000000   0.186000000
  C   -0.295000000   2.320000000   0.085000000
  C    1.197000000   2.491000000   0.063000000
  C   -1.134000000   3.560000000  -0.046000000
  H    1.527000000   2.405000000  -0.975000000
  H    1.493000000   3.472000000   0.428000000
  H    1.687000000   1.710000000   0.635000000
  H   -2.183000000   3.306000000  -0.157000000
  H   -0.794000000   4.154000000  -0.896000000
  H   -0.997000000   4.179000000   0.843000000
  N    0.822200000  -3.964900000  -0.210300000
  N    1.508200000  -0.224900000   2.374700000
  C    0.893200000  -0.574900000   1.467700000
  N    1.289200000   0.133100000  -2.265300000
  C    0.764200000  -0.363900000  -1.370300000
  C    0.505200000  -2.862900000  -0.112300000
 As   -0.301800000  -1.097900000   0.053700000
