18
charge=0 charge_a=0 charge_b=0 selection_a=1-7 selection_b=8-18 scaling=0.95 benchmark_Eint=-5.736 benchmark_unit=kcal/mol group=As
  O    1.750000000   0.278000000  -0.478000000
  O    2.160000000   1.787000000  -1.970000000
  N    1.835000000   1.439000000  -0.856000000
  C    1.478000000   2.502000000   0.132000000
  H    1.944000000   3.426000000  -0.186000000
  H    1.809000000   2.174000000   1.110000000
  H    0.395000000   2.586000000   0.115000000
  F   -0.386850000   0.532950000   1.649400000
  C   -0.765850000  -0.758050000   1.628400000
  F   -1.871850000  -0.669050000  -2.452600000
  F   -1.000850000   0.972950000  -1.329600000
  F    0.002150000  -1.428050000   2.502400000
  F   -2.026850000  -0.819050000   2.054400000
  F   -2.817850000   0.026950000  -0.631600000
  N   -2.599850000  -3.706050000  -0.015600000
  C   -1.641850000  -0.207050000  -1.216600000
  C   -1.843850000  -2.841050000  -0.072600000
 As   -0.437850000  -1.545050000  -0.238600000
