12
charge=0 charge_a=0 charge_b=0 selection_a=1-7 selection_b=8-12 scaling=1.5 benchmark_Eint=-2.695 benchmark_unit=kcal/mol group=As
  O    1.731000000   0.229000000  -0.351000000
  O    1.192000000   1.688000000  -1.854000000
  N    1.577000000   1.382000000  -0.748000000
  C    1.846000000   2.470000000   0.236000000
  H    1.979000000   3.394000000  -0.310000000
  H    2.720000000   2.187000000   0.812000000
  H    0.969000000   2.511000000   0.879000000
 Br   -3.623500000  -3.491500000   0.785000000
  F   -2.144500000  -1.871500000  -1.447000000
  N   -2.203500000   0.298500000   1.552000000
  C   -2.085500000  -0.708500000   1.006000000
 As   -1.633500000  -2.394500000   0.132000000
