14
charge=0 charge_a=0 charge_b=0 selection_a=1-7 selection_b=8-14 scaling=0.9 benchmark_Eint=-7.961 benchmark_unit=kcal/mol group=As
  O    1.588000000   0.385000000  -0.695000000
  O    0.490000000   2.173000000  -1.215000000
  N    1.331000000   1.583000000  -0.579000000
  C    2.078000000   2.330000000   0.472000000
  H    2.062000000   3.382000000   0.214000000
  H    3.079000000   1.920000000   0.530000000
  H    1.537000000   2.149000000   1.399000000
  N   -2.482700000  -3.207500000   0.703800000
  N   -1.790700000  -0.015500000  -2.529200000
  C   -1.241700000  -0.486500000  -1.636200000
  N   -0.354700000   0.749500000   1.878800000
  C   -0.407700000  -0.054500000   1.057800000
  C   -1.698700000  -2.452500000   0.329800000
 As   -0.205700000  -1.401500000  -0.306200000
