12
charge=0 charge_a=0 charge_b=0 selection_a=1-7 selection_b=8-12 scaling=0.85 benchmark_Eint=-4.419 benchmark_unit=kcal/mol group=As
  O    1.731000000   0.229000000  -0.351000000
  O    1.192000000   1.688000000  -1.854000000
  N    1.577000000   1.382000000  -0.748000000
  C    1.846000000   2.470000000   0.236000000
  H    1.979000000   3.394000000  -0.310000000
  H    2.720000000   2.187000000   0.812000000
  H    0.969000000   2.511000000   0.879000000
 Br   -2.165550000  -2.354650000   0.575700000
  F   -0.686550000  -0.734650000  -1.656300000
  N   -0.745550000   1.435350000   1.342700000
  C   -0.627550000   0.428350000   0.796700000
 As   -0.175550000  -1.257650000  -0.077300000
