20
charge=0 charge_a=0 charge_b=0 selection_a=1-9 selection_b=10-20 scaling=2.0 benchmark_Eint=-0.340 benchmark_unit=kcal/mol group=As
  O   -1.480000000  -0.147000000   0.327000000
  C   -3.447000000   0.796000000  -0.128000000
  C   -3.627000000  -0.622000000  -0.021000000
  C   -2.132000000   1.030000000   0.090000000
  C   -2.410000000  -1.143000000   0.254000000
  H   -4.199000000   1.535000000  -0.338000000
  H   -4.544000000  -1.172000000  -0.135000000
  H   -1.529000000   1.917000000   0.115000000
  H   -2.045000000  -2.139000000   0.416000000
  F    3.462000000  -1.923000000   0.962000000
  C    4.499000000  -1.086000000   1.122000000
  F    4.822000000  -0.359000000  -3.031000000
  F    3.224000000  -1.478000000  -2.077000000
  F    4.348000000  -0.454000000   2.297000000
  F    5.612000000  -1.816000000   1.186000000
  F    5.288000000  -2.052000000  -1.758000000
  N    7.525000000   0.749000000  -0.412000000
  C    4.469000000  -1.009000000  -1.911000000
  C    6.399000000   0.508000000  -0.396000000
 As    4.490000000   0.329000000  -0.363000000
