12
charge=0 charge_a=0 charge_b=0 selection_a=1-7 selection_b=8-12 scaling=1.05 benchmark_Eint=-7.770 benchmark_unit=kcal/mol group=As
  O    1.731000000   0.229000000  -0.351000000
  O    1.192000000   1.688000000  -1.854000000
  N    1.577000000   1.382000000  -0.748000000
  C    1.846000000   2.470000000   0.236000000
  H    1.979000000   3.394000000  -0.310000000
  H    2.720000000   2.187000000   0.812000000
  H    0.969000000   2.511000000   0.879000000
 Br   -2.614150000  -2.704450000   0.640100000
  F   -1.135150000  -1.084450000  -1.591900000
  N   -1.194150000   1.085550000   1.407100000
  C   -1.076150000   0.078550000   0.861100000
 As   -0.624150000  -1.607450000  -0.012900000
