14
charge=0 charge_a=0 charge_b=0 selection_a=1-10 selection_b=11-14 scaling=1.5 benchmark_Eint=-2.459 benchmark_unit=kcal/mol group=As
  O    0.920000000   1.393000000   0.183000000
  C    0.453000000   2.508000000   0.075000000
  C    1.338000000   3.727000000   0.111000000
  C   -1.023000000   2.742000000  -0.113000000
  H    1.116000000   4.387000000  -0.729000000
  H    1.130000000   4.293000000   1.021000000
  H    2.384000000   3.437000000   0.096000000
  H   -1.589000000   1.853000000   0.148000000
  H   -1.207000000   2.983000000  -1.162000000
  H   -1.364000000   3.595000000   0.474000000
 As   -1.033000000  -2.121500000   0.358500000
  F   -1.505000000  -3.839500000   0.189500000
  H    0.419000000  -2.427500000   0.705500000
  H   -0.701000000  -1.943500000  -1.122500000
