14
charge=0 charge_a=0 charge_b=0 selection_a=1-7 selection_b=8-14 scaling=1.0 benchmark_Eint=-9.220 benchmark_unit=kcal/mol group=As
  O    1.588000000   0.385000000  -0.695000000
  O    0.490000000   2.173000000  -1.215000000
  N    1.331000000   1.583000000  -0.579000000
  C    2.078000000   2.330000000   0.472000000
  H    2.062000000   3.382000000   0.214000000
  H    3.079000000   1.920000000   0.530000000
  H    1.537000000   2.149000000   1.399000000
  N   -2.682000000  -3.406000000   0.747000000
  N   -1.990000000  -0.214000000  -2.486000000
  C   -1.441000000  -0.685000000  -1.593000000
  N   -0.554000000   0.551000000   1.922000000
  C   -0.607000000  -0.253000000   1.101000000
  C   -1.898000000  -2.651000000   0.373000000
 As   -0.405000000  -1.600000000  -0.263000000
