16
charge=0 charge_a=0 charge_b=0 selection_a=1-9 selection_b=10-16 scaling=1.0 benchmark_Eint=-4.619 benchmark_unit=kcal/mol group=As
  O   -1.316000000   0.233000000  -0.372000000
  C   -3.438000000   0.514000000   0.241000000
  C   -3.197000000  -0.885000000   0.035000000
  C   -2.269000000   1.143000000  -0.017000000
  C   -1.900000000  -1.000000000  -0.332000000
  H   -4.360000000   0.979000000   0.540000000
  H   -3.900000000  -1.690000000   0.149000000
  H   -1.959000000   2.171000000   0.000000000
  H   -1.262000000  -1.826000000  -0.580000000
  F    3.820000000  -2.743000000  -1.347000000
  F    2.892000000  -2.774000000   1.050000000
 As    1.615000000   0.275000000  -0.120000000
  F    1.138000000  -0.332000000   1.437000000
  F    1.227000000  -1.179000000  -0.991000000
 As    4.320000000  -2.213000000   0.235000000
  S    3.875000000  -0.002000000   0.070000000
