17
charge=0 charge_a=0 charge_b=0 selection_a=1-10 selection_b=11-17 scaling=0.95 benchmark_Eint=-9.048 benchmark_unit=kcal/mol group=As
  O   -1.080000000   1.276000000  -0.247000000
  C   -0.354000000   2.236000000  -0.073000000
  C    1.139000000   2.158000000  -0.246000000
  C   -0.925000000   3.564000000   0.348000000
  H    1.407000000   1.370000000  -0.941000000
  H    1.553000000   3.113000000  -0.563000000
  H    1.577000000   1.910000000   0.723000000
  H   -1.981000000   3.471000000   0.582000000
  H   -0.791000000   4.285000000  -0.461000000
  H   -0.379000000   3.953000000   1.209000000
  F    2.431550000  -2.875650000   1.758700000
  F    3.011550000  -1.909650000  -0.551300000
 As   -0.444450000  -1.200650000  -0.374300000
  F    0.531550000  -0.628650000  -1.701300000
  F    0.607550000  -0.624650000   0.887700000
 As    2.481550000  -3.433650000   0.105700000
  S    0.292550000  -3.390650000  -0.406300000
