14
charge=0 charge_a=0 charge_b=0 selection_a=1-10 selection_b=11-14 scaling=0.8 benchmark_Eint=0.622 benchmark_unit=kcal/mol group=As
  O    0.920000000   1.393000000   0.183000000
  C    0.453000000   2.508000000   0.075000000
  C    1.338000000   3.727000000   0.111000000
  C   -1.023000000   2.742000000  -0.113000000
  H    1.116000000   4.387000000  -0.729000000
  H    1.130000000   4.293000000   1.021000000
  H    2.384000000   3.437000000   0.096000000
  H   -1.589000000   1.853000000   0.148000000
  H   -1.207000000   2.983000000  -1.162000000
  H   -1.364000000   3.595000000   0.474000000
 As   -0.121600000  -0.481400000   0.276600000
  F   -0.593600000  -2.199400000   0.107600000
  H    1.330400000  -0.787400000   0.623600000
  H    0.210400000  -0.303400000  -1.204400000
