16
charge=0 charge_a=0 charge_b=0 selection_a=1-4 selection_b=5-16 scaling=0.85 benchmark_Eint=-6.813 benchmark_unit=kcal/mol group=As
 As   -0.457000000  -0.067000000  -0.327000000
  F   -2.001000000  -0.567000000  -1.108000000
  H   -1.101000000   1.054000000   0.477000000
  H   -0.601000000  -1.063000000   0.822000000
  O    1.153750000   0.602800000   0.937800000
  N    2.308750000   0.325800000   0.435800000
  C    3.186750000   1.326800000   0.162800000
  C    2.652750000  -0.960200000   0.162800000
  C    4.424750000   1.055800000  -0.375200000
  C    3.882750000  -1.263200000  -0.380200000
  C    4.792750000  -0.253200000  -0.658200000
  H    2.821750000   2.310800000   0.404800000
  H    1.899750000  -1.687200000   0.412800000
  H    5.091750000   1.880800000  -0.574200000
  H    4.114750000  -2.298200000  -0.581200000
  H    5.758750000  -0.478200000  -1.083200000
