12
charge=0 charge_a=0 charge_b=0 selection_a=1-7 selection_b=8-12 scaling=0.8 benchmark_Eint=0.599 benchmark_unit=kcal/mol group=As
  O    1.731000000   0.229000000  -0.351000000
  O    1.192000000   1.688000000  -1.854000000
  N    1.577000000   1.382000000  -0.748000000
  C    1.846000000   2.470000000   0.236000000
  H    1.979000000   3.394000000  -0.310000000
  H    2.720000000   2.187000000   0.812000000
  H    0.969000000   2.511000000   0.879000000
 Br   -2.053400000  -2.267200000   0.559600000
  F   -0.574400000  -0.647200000  -1.672400000
  N   -0.633400000   1.522800000   1.326600000
  C   -0.515400000   0.515800000   0.780600000
 As   -0.063400000  -1.170200000  -0.093400000
