17
charge=0 charge_a=0 charge_b=0 selection_a=1-10 selection_b=11-17 scaling=1.05 benchmark_Eint=-8.772 benchmark_unit=kcal/mol group=As
  O   -1.080000000   1.276000000  -0.247000000
  C   -0.354000000   2.236000000  -0.073000000
  C    1.139000000   2.158000000  -0.246000000
  C   -0.925000000   3.564000000   0.348000000
  H    1.407000000   1.370000000  -0.941000000
  H    1.553000000   3.113000000  -0.563000000
  H    1.577000000   1.910000000   0.723000000
  H   -1.981000000   3.471000000   0.582000000
  H   -0.791000000   4.285000000  -0.461000000
  H   -0.379000000   3.953000000   1.209000000
  F    2.498450000  -3.136350000   1.745300000
  F    3.078450000  -2.170350000  -0.564700000
 As   -0.377550000  -1.461350000  -0.387700000
  F    0.598450000  -0.889350000  -1.714700000
  F    0.674450000  -0.885350000   0.874300000
 As    2.548450000  -3.694350000   0.092300000
  S    0.359450000  -3.651350000  -0.419700000
