16
charge=0 charge_a=0 charge_b=0 selection_a=1-9 selection_b=10-16 scaling=2.0 benchmark_Eint=-0.270 benchmark_unit=kcal/mol group=As
  O   -1.316000000   0.233000000  -0.372000000
  C   -3.438000000   0.514000000   0.241000000
  C   -3.197000000  -0.885000000   0.035000000
  C   -2.269000000   1.143000000  -0.017000000
  C   -1.900000000  -1.000000000  -0.332000000
  H   -4.360000000   0.979000000   0.540000000
  H   -3.900000000  -1.690000000   0.149000000
  H   -1.959000000   2.171000000   0.000000000
  H   -1.262000000  -1.826000000  -0.580000000
  F    6.751000000  -2.701000000  -1.095000000
  F    5.823000000  -2.732000000   1.302000000
 As    4.546000000   0.317000000   0.132000000
  F    4.069000000  -0.290000000   1.689000000
  F    4.158000000  -1.137000000  -0.739000000
 As    7.251000000  -2.171000000   0.487000000
  S    6.806000000   0.040000000   0.322000000
