15
charge=0 charge_a=0 charge_b=0 selection_a=1-10 selection_b=11-15 scaling=0.9 benchmark_Eint=-10.422 benchmark_unit=kcal/mol group=As
  O   -0.847000000   1.258000000   0.154000000
  C   -0.313000000   2.350000000   0.067000000
  C    1.127000000   2.571000000   0.430000000
  C   -1.084000000   3.537000000  -0.442000000
  H    1.283000000   3.567000000   0.839000000
  H    1.474000000   1.811000000   1.123000000
  H    1.718000000   2.492000000  -0.485000000
  H   -2.061000000   3.234000000  -0.802000000
  H   -0.524000000   4.033000000  -1.236000000
  H   -1.198000000   4.263000000   0.365000000
 Br    1.035600000  -3.082100000   0.508300000
  F    0.897600000  -0.228100000   1.735300000
  N    1.658600000   0.172900000  -1.879700000
  C    1.084600000  -0.281100000  -0.990700000
 As   -0.042400000  -0.955100000   0.448300000
