21
charge=0 charge_a=0 charge_b=0 selection_a=1-10 selection_b=11-21 scaling=1.05 benchmark_Eint=-7.954 benchmark_unit=kcal/mol group=As
  O   -0.599000000   1.282000000   0.126000000
  C   -0.239000000   2.435000000   0.008000000
  C    1.192000000   2.854000000   0.221000000
  C   -1.215000000   3.519000000  -0.371000000
  H    1.639000000   3.072000000  -0.751000000
  H    1.243000000   3.772000000   0.807000000
  H    1.759000000   2.065000000   0.701000000
  H   -2.173000000   3.089000000  -0.644000000
  H   -0.821000000   4.118000000  -1.193000000
  H   -1.347000000   4.196000000   0.476000000
  F    1.766300000  -0.102200000  -1.184750000
  C    0.987300000  -1.173200000  -1.405750000
  F    1.203300000  -2.229200000   2.672250000
  F    1.679300000  -0.245200000   1.939250000
  F    0.115300000  -0.854200000  -2.377750000
  F    1.767300000  -2.154200000  -1.862750000
  F    2.657300000  -1.976200000   1.082250000
  N    0.203300000  -4.703200000  -0.061750000
  C    1.497300000  -1.523200000   1.568250000
  C    0.186300000  -3.558200000   0.050250000
 As   -0.088700000  -1.662200000   0.278250000
