14
charge=0 charge_a=0 charge_b=0 selection_a=1-7 selection_b=8-14 scaling=2.0 benchmark_Eint=-1.048 benchmark_unit=kcal/mol group=As
  O    1.588000000   0.385000000  -0.695000000
  O    0.490000000   2.173000000  -1.215000000
  N    1.331000000   1.583000000  -0.579000000
  C    2.078000000   2.330000000   0.472000000
  H    2.062000000   3.382000000   0.214000000
  H    3.079000000   1.920000000   0.530000000
  H    1.537000000   2.149000000   1.399000000
  N   -4.675000000  -5.391000000   1.179000000
  N   -3.983000000  -2.199000000  -2.054000000
  C   -3.434000000  -2.670000000  -1.161000000
  N   -2.547000000  -1.434000000   2.354000000
  C   -2.600000000  -2.238000000   1.533000000
  C   -3.891000000  -4.636000000   0.805000000
 As   -2.398000000  -3.585000000   0.169000000
