14
charge=0 charge_a=0 charge_b=0 selection_a=1-7 selection_b=8-14 scaling=1.0 benchmark_Eint=-7.705 benchmark_unit=kcal/mol group=As
  O    2.984000000   2.117000000  -0.796000000
  O    1.733000000   0.450000000  -1.356000000
  N    2.017000000   1.402000000  -0.639000000
  C    1.101000000   1.693000000   0.505000000
  H    0.113000000   1.865000000   0.090000000
  H    1.488000000   2.555000000   1.031000000
  H    1.070000000   0.803000000   1.126000000
  F   -4.126000000  -0.410000000  -0.223000000
  F   -2.465000000  -0.835000000   1.689000000
 As   -0.438000000  -1.422000000  -1.105000000
  F    0.222000000  -1.405000000   0.512000000
  F   -1.251000000   0.111000000  -0.965000000
 As   -3.607000000  -1.757000000   0.752000000
  S   -2.224000000  -2.793000000  -0.705000000
