23
charge=0 charge_a=0 charge_b=0 selection_a=1-11 selection_b=12-23 scaling=1.05 benchmark_Eint=-13.687 benchmark_unit=kcal/mol group=As
  F    0.285000000  -1.291000000   1.678000000
  C   -1.004000000  -0.945000000   1.523000000
  F   -0.294000000   2.496000000  -0.815000000
  F    0.506000000   1.669000000   1.026000000
  F   -1.733000000  -2.075000000   1.561000000
  F   -1.347000000  -0.197000000   2.578000000
  F   -1.477000000   2.528000000   0.995000000
  N   -4.276000000   0.576000000   0.387000000
  C   -0.615000000   1.793000000   0.291000000
  C   -3.151000000   0.383000000   0.232000000
 As   -1.326000000  -0.047000000  -0.294000000
  O    1.265400000  -0.399800000  -1.054200000
  N    2.435400000  -0.120800000  -0.574200000
  C    3.010400000   1.080200000  -0.839200000
  C    3.094400000  -1.028800000   0.188800000
  C    4.255400000   1.392200000  -0.342200000
  C    4.341400000  -0.746800000   0.702800000
  C    4.943400000   0.477200000   0.442800000
  H    2.411400000   1.733200000  -1.449200000
  H    2.560400000  -1.948800000   0.344800000
  H    4.676400000   2.359200000  -0.575200000
  H    4.831400000  -1.495800000   1.305800000
  H    5.918400000   0.710200000   0.840800000
