14
charge=0 charge_a=0 charge_b=0 selection_a=1-9 selection_b=10-14 scaling=0.85 benchmark_Eint=-3.117 benchmark_unit=kcal/mol group=As
  O   -1.359000000  -0.055000000   0.266000000
  C   -3.432000000   0.651000000  -0.141000000
  C   -3.447000000  -0.776000000  -0.005000000
  C   -2.147000000   1.036000000   0.030000000
  C   -2.173000000  -1.155000000   0.239000000
  H   -4.268000000   1.296000000  -0.341000000
  H   -4.299000000  -1.428000000  -0.080000000
  H   -1.648000000   1.986000000   0.015000000
  H   -1.689000000  -2.099000000   0.407000000
 Br    3.416300000  -0.037200000  -0.055750000
  F    0.688300000   0.054800000  -1.580750000
  N    0.497300000  -2.803200000   0.787250000
  C    0.768300000  -1.728200000   0.476250000
 As    1.070300000   0.155800000   0.117250000
