18
charge=0 charge_a=0 charge_b=0 selection_a=1-7 selection_b=8-18 scaling=0.85 benchmark_Eint=-2.911 benchmark_unit=kcal/mol group=As
  O    1.750000000   0.278000000  -0.478000000
  O    2.160000000   1.787000000  -1.970000000
  N    1.835000000   1.439000000  -0.856000000
  C    1.478000000   2.502000000   0.132000000
  H    1.944000000   3.426000000  -0.186000000
  H    1.809000000   2.174000000   1.110000000
  H    0.395000000   2.586000000   0.115000000
  F   -0.156550000   0.724850000   1.624200000
  C   -0.535550000  -0.566150000   1.603200000
  F   -1.641550000  -0.477150000  -2.477800000
  F   -0.770550000   1.164850000  -1.354800000
  F    0.232450000  -1.236150000   2.477200000
  F   -1.796550000  -0.627150000   2.029200000
  F   -2.587550000   0.218850000  -0.656800000
  N   -2.369550000  -3.514150000  -0.040800000
  C   -1.411550000  -0.015150000  -1.241800000
  C   -1.613550000  -2.649150000  -0.097800000
 As   -0.207550000  -1.353150000  -0.263800000
