11
charge=0 charge_a=0 charge_b=0 selection_a=1-7 selection_b=8-11 scaling=0.8 benchmark_Eint=0.296 benchmark_unit=kcal/mol group=As
  O    1.473000000   0.458000000   0.157000000
  O    0.282000000   2.212000000  -0.283000000
  N    1.335000000   1.657000000  -0.051000000
  C    2.580000000   2.484000000  -0.012000000
  H    2.311000000   3.512000000  -0.211000000
  H    3.253000000   2.083000000  -0.763000000
  H    3.016000000   2.357000000   0.974000000
 As   -0.261400000  -1.012400000   0.153000000
  F   -1.826400000  -1.860400000   0.073000000
  H   -0.488400000  -0.200400000  -1.123000000
  H   -0.781400000   0.138600000   1.016000000
