14
charge=0 charge_a=0 charge_b=0 selection_a=1-7 selection_b=8-14 scaling=0.9 benchmark_Eint=-6.718 benchmark_unit=kcal/mol group=As
  O    2.984000000   2.117000000  -0.796000000
  O    1.733000000   0.450000000  -1.356000000
  N    2.017000000   1.402000000  -0.639000000
  C    1.101000000   1.693000000   0.505000000
  H    0.113000000   1.865000000   0.090000000
  H    1.488000000   2.555000000   1.031000000
  H    1.070000000   0.803000000   1.126000000
  F   -3.908900000  -0.222800000  -0.248100000
  F   -2.247900000  -0.647800000   1.663900000
 As   -0.220900000  -1.234800000  -1.130100000
  F    0.439100000  -1.217800000   0.486900000
  F   -1.033900000   0.298200000  -0.990100000
 As   -3.389900000  -1.569800000   0.726900000
  S   -2.006900000  -2.605800000  -0.730100000
