23
charge=0 charge_a=0 charge_b=0 selection_a=1-11 selection_b=12-23 scaling=0.9 benchmark_Eint=-12.945 benchmark_unit=kcal/mol group=As
  F    0.285000000  -1.291000000   1.678000000
  C   -1.004000000  -0.945000000   1.523000000
  F   -0.294000000   2.496000000  -0.815000000
  F    0.506000000   1.669000000   1.026000000
  F   -1.733000000  -2.075000000   1.561000000
  F   -1.347000000  -0.197000000   2.578000000
  F   -1.477000000   2.528000000   0.995000000
  N   -4.276000000   0.576000000   0.387000000
  C   -0.615000000   1.793000000   0.291000000
  C   -3.151000000   0.383000000   0.232000000
 As   -1.326000000  -0.047000000  -0.294000000
  O    0.895200000  -0.349400000  -0.945600000
  N    2.065200000  -0.070400000  -0.465600000
  C    2.640200000   1.130600000  -0.730600000
  C    2.724200000  -0.978400000   0.297400000
  C    3.885200000   1.442600000  -0.233600000
  C    3.971200000  -0.696400000   0.811400000
  C    4.573200000   0.527600000   0.551400000
  H    2.041200000   1.783600000  -1.340600000
  H    2.190200000  -1.898400000   0.453400000
  H    4.306200000   2.409600000  -0.466600000
  H    4.461200000  -1.445400000   1.414400000
  H    5.548200000   0.760600000   0.949400000
