14
charge=0 charge_a=0 charge_b=0 selection_a=1-9 selection_b=10-14 scaling=1.5 benchmark_Eint=-1.684 benchmark_unit=kcal/mol group=As
  O   -1.359000000  -0.055000000   0.266000000
  C   -3.432000000   0.651000000  -0.141000000
  C   -3.447000000  -0.776000000  -0.005000000
  C   -2.147000000   1.036000000   0.030000000
  C   -2.173000000  -1.155000000   0.239000000
  H   -4.268000000   1.296000000  -0.341000000
  H   -4.299000000  -1.428000000  -0.080000000
  H   -1.648000000   1.986000000   0.015000000
  H   -1.689000000  -2.099000000   0.407000000
 Br    5.274000000   0.124000000  -0.169500000
  F    2.546000000   0.216000000  -1.694500000
  N    2.355000000  -2.642000000   0.673500000
  C    2.626000000  -1.567000000   0.362500000
 As    2.928000000   0.317000000   0.003500000
