17
charge=0 charge_a=0 charge_b=0 selection_a=1-5 selection_b=6-17 scaling=1.25 benchmark_Eint=-14.313 benchmark_unit=kcal/mol group=As
 Br   -2.683000000   0.713000000   1.275000000
  F    0.026000000   1.683000000   0.122000000
  N    0.727000000  -1.392000000   2.087000000
  C    0.122000000  -0.776000000   1.324000000
 As   -0.786000000   0.143000000  -0.139000000
  O    1.722750000  -0.560750000  -1.501500000
  N    2.867750000  -0.336750000  -0.899500000
  C    3.369750000   0.919250000  -0.849500000
  C    3.526750000  -1.365750000  -0.320500000
  C    4.565750000   1.166250000  -0.213500000
  C    4.727750000  -1.154750000   0.319500000
  C    5.262750000   0.123250000   0.381500000
  H    2.757750000   1.666250000  -1.323500000
  H    3.031750000  -2.317750000  -0.398500000
  H    4.937750000   2.178250000  -0.186500000
  H    5.223750000  -1.996750000   0.776500000
  H    6.199750000   0.304250000   0.886500000
