16
charge=0 charge_a=0 charge_b=0 selection_a=1-4 selection_b=5-16 scaling=1.1 benchmark_Eint=-9.404 benchmark_unit=kcal/mol group=As
 As   -0.457000000  -0.067000000  -0.327000000
  F   -2.001000000  -0.567000000  -1.108000000
  H   -1.101000000   1.054000000   0.477000000
  H   -0.601000000  -1.063000000   0.822000000
  O    1.627500000   0.799800000   1.309800000
  N    2.782500000   0.522800000   0.807800000
  C    3.660500000   1.523800000   0.534800000
  C    3.126500000  -0.763200000   0.534800000
  C    4.898500000   1.252800000  -0.003200000
  C    4.356500000  -1.066200000  -0.008200000
  C    5.266500000  -0.056200000  -0.286200000
  H    3.295500000   2.507800000   0.776800000
  H    2.373500000  -1.490200000   0.784800000
  H    5.565500000   2.077800000  -0.202200000
  H    4.588500000  -2.101200000  -0.209200000
  H    6.232500000  -0.281200000  -0.711200000
