14
charge=0 charge_a=0 charge_b=0 selection_a=1-9 selection_b=10-14 scaling=2.0 benchmark_Eint=-0.430 benchmark_unit=kcal/mol group=As
  O   -1.359000000  -0.055000000   0.266000000
  C   -3.432000000   0.651000000  -0.141000000
  C   -3.447000000  -0.776000000  -0.005000000
  C   -2.147000000   1.036000000   0.030000000
  C   -2.173000000  -1.155000000   0.239000000
  H   -4.268000000   1.296000000  -0.341000000
  H   -4.299000000  -1.428000000  -0.080000000
  H   -1.648000000   1.986000000   0.015000000
  H   -1.689000000  -2.099000000   0.407000000
 Br    6.703000000   0.248000000  -0.257000000
  F    3.975000000   0.340000000  -1.782000000
  N    3.784000000  -2.518000000   0.586000000
  C    4.055000000  -1.443000000   0.275000000
 As    4.357000000   0.441000000  -0.084000000
