18
charge=0 charge_a=0 charge_b=0 selection_a=1-7 selection_b=8-18 scaling=1.5 benchmark_Eint=-1.775 benchmark_unit=kcal/mol group=As
  O    1.750000000   0.278000000  -0.478000000
  O    2.160000000   1.787000000  -1.970000000
  N    1.835000000   1.439000000  -0.856000000
  C    1.478000000   2.502000000   0.132000000
  H    1.944000000   3.426000000  -0.186000000
  H    1.809000000   2.174000000   1.110000000
  H    0.395000000   2.586000000   0.115000000
  F   -1.653500000  -0.522500000   1.788000000
  C   -2.032500000  -1.813500000   1.767000000
  F   -3.138500000  -1.724500000  -2.314000000
  F   -2.267500000  -0.082500000  -1.191000000
  F   -1.264500000  -2.483500000   2.641000000
  F   -3.293500000  -1.874500000   2.193000000
  F   -4.084500000  -1.028500000  -0.493000000
  N   -3.866500000  -4.761500000   0.123000000
  C   -2.908500000  -1.262500000  -1.078000000
  C   -3.110500000  -3.896500000   0.066000000
 As   -1.704500000  -2.600500000  -0.100000000
