17
charge=0 charge_a=0 charge_b=0 selection_a=1-5 selection_b=6-17 scaling=0.9 benchmark_Eint=-20.580 benchmark_unit=kcal/mol group=As
 Br   -2.683000000   0.713000000   1.275000000
  F    0.026000000   1.683000000   0.122000000
  N    0.727000000  -1.392000000   2.087000000
  C    0.122000000  -0.776000000   1.324000000
 As   -0.786000000   0.143000000  -0.139000000
  O    1.020300000  -0.363700000  -1.120000000
  N    2.165300000  -0.139700000  -0.518000000
  C    2.667300000   1.116300000  -0.468000000
  C    2.824300000  -1.168700000   0.061000000
  C    3.863300000   1.363300000   0.168000000
  C    4.025300000  -0.957700000   0.701000000
  C    4.560300000   0.320300000   0.763000000
  H    2.055300000   1.863300000  -0.942000000
  H    2.329300000  -2.120700000  -0.017000000
  H    4.235300000   2.375300000   0.195000000
  H    4.521300000  -1.799700000   1.158000000
  H    5.497300000   0.501300000   1.268000000
