14
charge=0 charge_a=0 charge_b=0 selection_a=1-9 selection_b=10-14 scaling=0.95 benchmark_Eint=-6.075 benchmark_unit=kcal/mol group=As
  O   -1.359000000  -0.055000000   0.266000000
  C   -3.432000000   0.651000000  -0.141000000
  C   -3.447000000  -0.776000000  -0.005000000
  C   -2.147000000   1.036000000   0.030000000
  C   -2.173000000  -1.155000000   0.239000000
  H   -4.268000000   1.296000000  -0.341000000
  H   -4.299000000  -1.428000000  -0.080000000
  H   -1.648000000   1.986000000   0.015000000
  H   -1.689000000  -2.099000000   0.407000000
 Br    3.702100000  -0.012400000  -0.073250000
  F    0.974100000   0.079600000  -1.598250000
  N    0.783100000  -2.778400000   0.769750000
  C    1.054100000  -1.703400000   0.458750000
 As    1.356100000   0.180600000   0.099750000
