19
charge=0 charge_a=0 charge_b=0 selection_a=1-12 selection_b=13-19 scaling=0.95 benchmark_Eint=-18.295 benchmark_unit=kcal/mol group=As
  O    1.281000000  -1.205000000  -1.397000000
  N    2.242000000  -0.527000000  -0.821000000
  C    2.662000000   0.638000000  -1.365000000
  C    2.789000000  -0.983000000   0.330000000
  C    3.659000000   1.373000000  -0.762000000
  C    3.788000000  -0.275000000   0.959000000
  C    4.238000000   0.921000000   0.416000000
  H    2.147000000   0.923000000  -2.265000000
  H    2.368000000  -1.905000000   0.689000000
  H    3.966000000   2.300000000  -1.220000000
  H    4.199000000  -0.665000000   1.877000000
  H    5.016000000   1.489000000   0.902000000
  F   -2.050200000   3.146100000  -0.115000000
  F   -0.886200000   1.955100000   1.845000000
 As   -0.767200000  -0.598900000  -0.675000000
  F   -0.006200000  -0.796900000   0.889000000
  F   -0.123200000   0.994100000  -0.988000000
 As   -2.516200000   2.130100000   1.233000000
  S   -2.820200000   0.176100000   0.207000000
