17
charge=0 charge_a=0 charge_b=0 selection_a=1-10 selection_b=11-17 scaling=2.0 benchmark_Eint=-1.904 benchmark_unit=kcal/mol group=As
  O   -0.822000000   1.225000000   0.186000000
  C   -0.295000000   2.320000000   0.085000000
  C    1.197000000   2.491000000   0.063000000
  C   -1.134000000   3.560000000  -0.046000000
  H    1.527000000   2.405000000  -0.975000000
  H    1.493000000   3.472000000   0.428000000
  H    1.687000000   1.710000000   0.635000000
  H   -2.183000000   3.306000000  -0.157000000
  H   -0.794000000   4.154000000  -0.896000000
  H   -0.997000000   4.179000000   0.843000000
  N    1.458000000  -6.804000000  -0.372000000
  N    2.144000000  -3.064000000   2.213000000
  C    1.529000000  -3.414000000   1.306000000
  N    1.925000000  -2.706000000  -2.427000000
  C    1.400000000  -3.203000000  -1.532000000
  C    1.141000000  -5.702000000  -0.274000000
 As    0.334000000  -3.937000000  -0.108000000
