14
charge=0 charge_a=0 charge_b=0 selection_a=1-9 selection_b=10-14 scaling=0.8 benchmark_Eint=1.040 benchmark_unit=kcal/mol group=As
  O   -1.359000000  -0.055000000   0.266000000
  C   -3.432000000   0.651000000  -0.141000000
  C   -3.447000000  -0.776000000  -0.005000000
  C   -2.147000000   1.036000000   0.030000000
  C   -2.173000000  -1.155000000   0.239000000
  H   -4.268000000   1.296000000  -0.341000000
  H   -4.299000000  -1.428000000  -0.080000000
  H   -1.648000000   1.986000000   0.015000000
  H   -1.689000000  -2.099000000   0.407000000
 Br    3.273400000  -0.049600000  -0.047000000
  F    0.545400000   0.042400000  -1.572000000
  N    0.354400000  -2.815600000   0.796000000
  C    0.625400000  -1.740600000   0.485000000
 As    0.927400000   0.143400000   0.126000000
