12
charge=0 charge_a=0 charge_b=0 selection_a=1-7 selection_b=8-12 scaling=0.9 benchmark_Eint=-6.966 benchmark_unit=kcal/mol group=As
  O    1.731000000   0.229000000  -0.351000000
  O    1.192000000   1.688000000  -1.854000000
  N    1.577000000   1.382000000  -0.748000000
  C    1.846000000   2.470000000   0.236000000
  H    1.979000000   3.394000000  -0.310000000
  H    2.720000000   2.187000000   0.812000000
  H    0.969000000   2.511000000   0.879000000
 Br   -2.277700000  -2.442100000   0.591800000
  F   -0.798700000  -0.822100000  -1.640200000
  N   -0.857700000   1.347900000   1.358800000
  C   -0.739700000   0.340900000   0.812800000
 As   -0.287700000  -1.345100000  -0.061200000
