20
charge=0 charge_a=0 charge_b=0 selection_a=1-9 selection_b=10-20 scaling=0.85 benchmark_Eint=-2.275 benchmark_unit=kcal/mol group=As
  O   -1.480000000  -0.147000000   0.327000000
  C   -3.447000000   0.796000000  -0.128000000
  C   -3.627000000  -0.622000000  -0.021000000
  C   -2.132000000   1.030000000   0.090000000
  C   -2.410000000  -1.143000000   0.254000000
  H   -4.199000000   1.535000000  -0.338000000
  H   -4.544000000  -1.172000000  -0.135000000
  H   -1.529000000   1.917000000   0.115000000
  H   -2.045000000  -2.139000000   0.416000000
  F    0.029250000  -2.196700000   1.358750000
  C    1.066250000  -1.359700000   1.518750000
  F    1.389250000  -0.632700000  -2.634250000
  F   -0.208750000  -1.751700000  -1.680250000
  F    0.915250000  -0.727700000   2.693750000
  F    2.179250000  -2.089700000   1.582750000
  F    1.855250000  -2.325700000  -1.361250000
  N    4.092250000   0.475300000  -0.015250000
  C    1.036250000  -1.282700000  -1.514250000
  C    2.966250000   0.234300000   0.000750000
 As    1.057250000   0.055300000   0.033750000
