17
charge=0 charge_a=0 charge_b=0 selection_a=1-5 selection_b=6-17 scaling=1.05 benchmark_Eint=-20.792 benchmark_unit=kcal/mol group=As
 Br   -2.683000000   0.713000000   1.275000000
  F    0.026000000   1.683000000   0.122000000
  N    0.727000000  -1.392000000   2.087000000
  C    0.122000000  -0.776000000   1.324000000
 As   -0.786000000   0.143000000  -0.139000000
  O    1.321350000  -0.448150000  -1.283500000
  N    2.466350000  -0.224150000  -0.681500000
  C    2.968350000   1.031850000  -0.631500000
  C    3.125350000  -1.253150000  -0.102500000
  C    4.164350000   1.278850000   0.004500000
  C    4.326350000  -1.042150000   0.537500000
  C    4.861350000   0.235850000   0.599500000
  H    2.356350000   1.778850000  -1.105500000
  H    2.630350000  -2.205150000  -0.180500000
  H    4.536350000   2.290850000   0.031500000
  H    4.822350000  -1.884150000   0.994500000
  H    5.798350000   0.416850000   1.104500000
