20
charge=0 charge_a=0 charge_b=0 selection_a=1-9 selection_b=10-20 scaling=1.1 benchmark_Eint=-4.250 benchmark_unit=kcal/mol group=As
  O   -1.480000000  -0.147000000   0.327000000
  C   -3.447000000   0.796000000  -0.128000000
  C   -3.627000000  -0.622000000  -0.021000000
  C   -2.132000000   1.030000000   0.090000000
  C   -2.410000000  -1.143000000   0.254000000
  H   -4.199000000   1.535000000  -0.338000000
  H   -4.544000000  -1.172000000  -0.135000000
  H   -1.529000000   1.917000000   0.115000000
  H   -2.045000000  -2.139000000   0.416000000
  F    0.775500000  -2.137200000   1.272500000
  C    1.812500000  -1.300200000   1.432500000
  F    2.135500000  -0.573200000  -2.720500000
  F    0.537500000  -1.692200000  -1.766500000
  F    1.661500000  -0.668200000   2.607500000
  F    2.925500000  -2.030200000   1.496500000
  F    2.601500000  -2.266200000  -1.447500000
  N    4.838500000   0.534800000  -0.101500000
  C    1.782500000  -1.223200000  -1.600500000
  C    3.712500000   0.293800000  -0.085500000
 As    1.803500000   0.114800000  -0.052500000
