21
charge=0 charge_a=0 charge_b=0 selection_a=1-10 selection_b=11-21 scaling=1.0 benchmark_Eint=-8.264 benchmark_unit=kcal/mol group=As
  O   -0.599000000   1.282000000   0.126000000
  C   -0.239000000   2.435000000   0.008000000
  C    1.192000000   2.854000000   0.221000000
  C   -1.215000000   3.519000000  -0.371000000
  H    1.639000000   3.072000000  -0.751000000
  H    1.243000000   3.772000000   0.807000000
  H    1.759000000   2.065000000   0.701000000
  H   -2.173000000   3.089000000  -0.644000000
  H   -0.821000000   4.118000000  -1.193000000
  H   -1.347000000   4.196000000   0.476000000
  F    1.742000000   0.038000000  -1.192000000
  C    0.963000000  -1.033000000  -1.413000000
  F    1.179000000  -2.089000000   2.665000000
  F    1.655000000  -0.105000000   1.932000000
  F    0.091000000  -0.714000000  -2.385000000
  F    1.743000000  -2.014000000  -1.870000000
  F    2.633000000  -1.836000000   1.075000000
  N    0.179000000  -4.563000000  -0.069000000
  C    1.473000000  -1.383000000   1.561000000
  C    0.162000000  -3.418000000   0.043000000
 As   -0.113000000  -1.522000000   0.271000000
