14
charge=0 charge_a=0 charge_b=0 selection_a=1-7 selection_b=8-14 scaling=0.8 benchmark_Eint=0.297 benchmark_unit=kcal/mol group=As
  O    1.588000000   0.385000000  -0.695000000
  O    0.490000000   2.173000000  -1.215000000
  N    1.331000000   1.583000000  -0.579000000
  C    2.078000000   2.330000000   0.472000000
  H    2.062000000   3.382000000   0.214000000
  H    3.079000000   1.920000000   0.530000000
  H    1.537000000   2.149000000   1.399000000
  N   -2.283400000  -3.009000000   0.660600000
  N   -1.591400000   0.183000000  -2.572400000
  C   -1.042400000  -0.288000000  -1.679400000
  N   -0.155400000   0.948000000   1.835600000
  C   -0.208400000   0.144000000   1.014600000
  C   -1.499400000  -2.254000000   0.286600000
 As   -0.006400000  -1.203000000  -0.349400000
