18
charge=0 charge_a=0 charge_b=0 selection_a=1-7 selection_b=8-18 scaling=1.25 benchmark_Eint=-3.473 benchmark_unit=kcal/mol group=As
  O    1.750000000   0.278000000  -0.478000000
  O    2.160000000   1.787000000  -1.970000000
  N    1.835000000   1.439000000  -0.856000000
  C    1.478000000   2.502000000   0.132000000
  H    1.944000000   3.426000000  -0.186000000
  H    1.809000000   2.174000000   1.110000000
  H    0.395000000   2.586000000   0.115000000
  F   -1.077750000  -0.042750000   1.725000000
  C   -1.456750000  -1.333750000   1.704000000
  F   -2.562750000  -1.244750000  -2.377000000
  F   -1.691750000   0.397250000  -1.254000000
  F   -0.688750000  -2.003750000   2.578000000
  F   -2.717750000  -1.394750000   2.130000000
  F   -3.508750000  -0.548750000  -0.556000000
  N   -3.290750000  -4.281750000   0.060000000
  C   -2.332750000  -0.782750000  -1.141000000
  C   -2.534750000  -3.416750000   0.003000000
 As   -1.128750000  -2.120750000  -0.163000000
