16
charge=0 charge_a=0 charge_b=0 selection_a=1-4 selection_b=5-16 scaling=0.9 benchmark_Eint=-9.501 benchmark_unit=kcal/mol group=As
 As   -0.457000000  -0.067000000  -0.327000000
  F   -2.001000000  -0.567000000  -1.108000000
  H   -1.101000000   1.054000000   0.477000000
  H   -0.601000000  -1.063000000   0.822000000
  O    1.248500000   0.642200000   1.012200000
  N    2.403500000   0.365200000   0.510200000
  C    3.281500000   1.366200000   0.237200000
  C    2.747500000  -0.920800000   0.237200000
  C    4.519500000   1.095200000  -0.300800000
  C    3.977500000  -1.223800000  -0.305800000
  C    4.887500000  -0.213800000  -0.583800000
  H    2.916500000   2.350200000   0.479200000
  H    1.994500000  -1.647800000   0.487200000
  H    5.186500000   1.920200000  -0.499800000
  H    4.209500000  -2.258800000  -0.506800000
  H    5.853500000  -0.438800000  -1.008800000
