14
charge=0 charge_a=0 charge_b=0 selection_a=1-7 selection_b=8-14 scaling=1.05 benchmark_Eint=-7.360 benchmark_unit=kcal/mol group=As
  O    2.984000000   2.117000000  -0.796000000
  O    1.733000000   0.450000000  -1.356000000
  N    2.017000000   1.402000000  -0.639000000
  C    1.101000000   1.693000000   0.505000000
  H    0.113000000   1.865000000   0.090000000
  H    1.488000000   2.555000000   1.031000000
  H    1.070000000   0.803000000   1.126000000
  F   -4.234550000  -0.503600000  -0.210450000
  F   -2.573550000  -0.928600000   1.701550000
 As   -0.546550000  -1.515600000  -1.092450000
  F    0.113450000  -1.498600000   0.524550000
  F   -1.359550000   0.017400000  -0.952450000
 As   -3.715550000  -1.850600000   0.764550000
  S   -2.332550000  -2.886600000  -0.692450000
