14
charge=0 charge_a=0 charge_b=0 selection_a=1-10 selection_b=11-14 scaling=1.1 benchmark_Eint=-6.587 benchmark_unit=kcal/mol group=As
  O    0.920000000   1.393000000   0.183000000
  C    0.453000000   2.508000000   0.075000000
  C    1.338000000   3.727000000   0.111000000
  C   -1.023000000   2.742000000  -0.113000000
  H    1.116000000   4.387000000  -0.729000000
  H    1.130000000   4.293000000   1.021000000
  H    2.384000000   3.437000000   0.096000000
  H   -1.589000000   1.853000000   0.148000000
  H   -1.207000000   2.983000000  -1.162000000
  H   -1.364000000   3.595000000   0.474000000
 As   -0.512200000  -1.184300000   0.311700000
  F   -0.984200000  -2.902300000   0.142700000
  H    0.939800000  -1.490300000   0.658700000
  H   -0.180200000  -1.006300000  -1.169300000
