22
charge=0 charge_a=0 charge_b=0 selection_a=1-2 selection_b=3-22 scaling=1.00 benchmark_Eint=-0.370 benchmark_unit=kcal/mol group=HBCNO
  H   -2.079290979   3.559746288  -2.355547763
  H   -2.281729862   4.136433962  -2.776010624
  C   -1.177178386   1.234364608  -0.615768158
  C   -0.667796485   0.064903240   0.231283272
  C   -1.707852019  -1.058884113   0.222267164
  C    0.723780527  -0.423585672  -0.225985462
  C    1.762961733   0.701087033  -0.219581975
  C    1.234437037  -1.591433046   0.622604212
  H   -2.180117751   1.525889686  -0.303747582
  H   -1.228713507   0.952008932  -1.669809014
  H   -0.540859943   2.112924069  -0.535756978
  H   -0.561143532   0.417820287   1.263575117
  H   -1.795166012  -1.494500184  -0.775672605
  H   -2.689409341  -0.675367398   0.500769807
  H   -1.460409255  -1.859466403   0.915716798
  H    0.616553171  -0.777902756  -1.257776960
  H    1.849668228   1.139453635   0.777218635
  H    1.515538015   1.499710474  -0.915358491
  H    2.744852663   0.317397278  -0.496615804
  H    1.287822030  -1.307322619   1.676035974
  H    2.236872815  -1.883349493   0.309545078
  H    0.598455172  -2.470447106   0.545481711
