13
charge=0 charge_a=0 charge_b=0 selection_a=1-2 selection_b=3-13 scaling=1.00 benchmark_Eint=-0.476 benchmark_unit=kcal/mol group=HBCNO
  H    0.060602511   0.128718847  -1.686007858
  H   -0.116742070   0.158498894  -0.966485655
  C    0.901968400   0.571212805   2.201279976
  C   -0.459162655  -0.117321125   2.143894780
  C   -0.350474007  -1.616801315   1.879736441
  H    0.803928307   1.640230242   2.389961597
  H    1.443897171   0.447136572   1.262435676
  H    1.520214051   0.148075790   2.994579927
  H   -1.070260248   0.346670719   1.366027776
  H   -0.991252785   0.049332469   3.083121861
  H    0.150004761  -1.812013266   0.930069250
  H   -1.331458759  -2.090364964   1.842276785
  H    0.228086973  -2.109987434   2.662441176
