13
charge=0 charge_a=0 charge_b=0 selection_a=1-2 selection_b=3-13 scaling=1.00 benchmark_Eint=-1.006 benchmark_unit=kcal/mol group=HBCNO
  H   -2.044487323  -2.283043581  -1.440162778
  H   -1.565492211  -2.080656084  -0.909993104
  C    0.174213624   0.427138221  -0.874552506
  C    0.848684831  -0.634499875  -0.056821071
  C    0.214458119  -0.750565456   1.121988206
  C   -0.897756883   0.200893418   1.168815851
  C   -0.937491634   0.893390347   0.018504321
  H   -0.203291480   0.033042512  -1.823900303
  H    0.859256225   1.240217799  -1.136179445
  H    1.705025771  -1.198922113  -0.388514852
  H    0.470613464  -1.432225693   1.918515826
  H   -1.571902997   0.313404124   2.003942068
  H   -1.643151072   1.663218317  -0.248515712
