11
charge=0 charge_a=0 charge_b=0 selection_a=1-2 selection_b=3-11 scaling=1.00 benchmark_Eint=-0.639 benchmark_unit=kcal/mol group=HBCNO
  H   -0.888272136  -2.237248993   1.427903040
  H   -1.178124982  -2.916501109   1.349738683
  C   -0.176617029   0.783972002   1.315825096
  C    0.495476515   0.236296931   0.312091883
  C   -0.113778296  -0.278857411  -0.952333379
  H    0.322416309   1.136670948   2.207273044
  H   -1.252706334   0.899448312   1.279323732
  H    1.573494662   0.141224535   0.395044349
  H   -1.193980856  -0.140662987  -0.959810993
  H    0.094824883  -1.343259439  -1.080584388
  H    0.303876741   0.229793284  -1.823723398
