14
charge=0 charge_a=0 charge_b=0 selection_a=1-2 selection_b=3-14 scaling=1.00 benchmark_Eint=-1.030 benchmark_unit=kcal/mol group=HBCNO
  H    0.000000011  -0.000000003  -2.687986515
  H    0.000000013  -0.000000005  -3.430259481
  C    1.203795565   0.695011686   0.079180540
  C    1.203795562  -0.695011680   0.079180529
  C    0.000000003  -1.390020028   0.079170604
  C   -1.203795572  -0.695011691   0.079180547
  C   -1.203795570   0.695011692   0.079180545
  C    0.000000003   1.390020021   0.079170605
  H    2.139849128   1.235442782   0.076786088
  H    2.139849133  -1.235442779   0.076786064
  H    0.000000008  -2.470881605   0.076771680
  H   -2.139849148  -1.235442793   0.076786091
  H   -2.139849141   1.235442800   0.076786084
  H    0.000000004   2.470881604   0.076771678
