17
charge=0 charge_a=0 charge_b=0 selection_a=1-2 selection_b=3-17 scaling=1.00 benchmark_Eint=-0.691 benchmark_unit=kcal/mol group=HBCNO
  H   -1.953592303   1.735126891  -2.215535759
  H   -2.371403017   2.228965082  -2.580419333
  C    0.404788335  -0.546847029   1.224331427
  C   -0.489342937   0.679337334   0.875430240
  C    0.358788792   1.252892581  -0.274711213
  C    0.867929644   0.221404548  -0.939899801
  C    0.369913488  -1.059323372  -0.245423631
  C   -1.158093699  -1.110148100  -0.427572528
  C   -1.668009735  -0.079179436   0.237825356
  H   -0.063435705  -1.232005699   1.928254258
  H    1.402642114  -0.268414846   1.557429111
  H   -0.740723961   1.369115715   1.674042669
  H    0.449875330   2.302471823  -0.502732202
  H    1.468811246   0.237623435  -1.834809031
  H    0.909855594  -1.970769234  -0.479083178
  H   -1.677389653  -1.830136107  -1.039235537
  H   -2.698088914   0.233486165   0.293411801
