10
charge=0 charge_a=0 charge_b=0 selection_a=1-2 selection_b=3-10 scaling=1.00 benchmark_Eint=-0.655 benchmark_unit=kcal/mol group=HBCNO
  H   -0.314803253   1.057032671  -3.421062318
  H   -0.134846719   0.572543117  -2.887881994
  C   -0.429436283   0.659903512   0.150312270
  C    0.852321884   0.421175283   0.409787046
  C    0.702478374  -1.030945791  -0.180964371
  C   -0.579773800  -0.793813168  -0.440945259
  H   -1.092965857   1.498543916   0.284303159
  H    1.661754862   0.986232880   0.842562465
  H    1.365902647  -1.869772865  -0.315844314
  H   -1.389081404  -1.359896457  -0.872558254
