10
charge=0 charge_a=0 charge_b=0 selection_a=1-2 selection_b=3-10 scaling=1.00 benchmark_Eint=-0.401 benchmark_unit=kcal/mol group=HBCNO
  H   -0.625030075   0.261883656  -3.582172561
  H   -0.533942753  -0.108306307  -2.945902891
  C   -0.056628236  -0.869765396   0.005930806
  C    0.020973296   0.623628035   0.311152483
  H    0.697124286  -1.165687229  -0.724075788
  H   -1.031693770  -1.142406456  -0.398460809
  H    0.104447961  -1.467188693   0.903371144
  H   -0.140437794   1.221169119  -0.586018178
  H    0.996036324   0.895090966   0.715835300
  H   -0.732115503   0.918145262   1.042133070
