12
charge=0 charge_a=0 charge_b=0 selection_a=1-2 selection_b=3-12 scaling=1.00 benchmark_Eint=-0.572 benchmark_unit=kcal/mol group=HBCNO
  H    2.246305219  -0.113757422  -2.934138514
  H    2.026746984   0.152668450  -2.277067196
  C   -1.572667069  -0.138479804  -0.545998022
  C   -0.309759397  -0.380434850  -0.193823469
  C    0.541307191   0.573175702   0.493589016
  C    1.805798221   0.333441343   0.842397182
  H   -2.170309274  -0.877468017  -1.058796914
  H   -2.044990479   0.810991396  -0.329743681
  H    0.134454825  -1.342348115  -0.426429775
  H    0.097292845   1.535780963   0.724315703
  H    2.278856646  -0.615565218   0.626033344
  H    2.404072523   1.074039168   1.352122360
