10
charge=0 charge_a=0 charge_b=0 selection_a=1-2 selection_b=3-10 scaling=1.00 benchmark_Eint=-0.321 benchmark_unit=kcal/mol group=HBCNO
  H   -0.034987419   0.303202346  -1.299880729
  H   -0.475629893   0.381536390  -1.891372058
  B   -0.207926028  -1.232583178   1.896168633
  H   -0.728551615  -1.667667395   2.866601219
  H   -0.323940781  -1.754750790   0.839967084
  H    1.065532271  -1.043465589   2.143804394
  B    0.761470277   0.225563489   2.025365537
  H    1.281495754   0.659584692   1.053884167
  H    0.879553038   0.750941246   3.079925715
  H   -0.512000803   0.037463158   1.780694975
