18
charge=0 charge_a=0 charge_b=0 selection_a=1-2 selection_b=3-18 scaling=1.00 benchmark_Eint=-0.813 benchmark_unit=kcal/mol group=HBCNO
  H   -0.289793279   0.135090349  -1.072169622
  H   -0.523265649  -0.547032182  -1.247509334
  B    1.567244398   0.755722088   2.492103155
  B    0.311144709  -0.443897973   2.377525132
  B    1.883592743  -0.661573959   1.560635216
  B   -0.194918314   1.296956875   2.169395890
  B    2.572422625   0.778171003   0.887168215
  H    2.075242818   0.940593755   3.539980407
  H    0.025179942  -1.173107434   3.256466337
  H    2.545679170  -1.532418740   1.998420372
  H   -0.747141538   1.689786921   3.139359058
  H    3.755016037   0.731861098   0.946329430
  H    0.639510529  -1.140878740   1.314212721
  H   -0.719744028   0.052588623   1.844362733
  H    2.165975888  -0.410505279   0.335424133
  H   -0.505668805   1.774747422   1.121415384
  H    2.064713531   1.531166008   0.124966856
  H    1.119986512   1.795126450   1.963394279
