12
charge=0 charge_a=0 charge_b=0 selection_a=1-6 selection_b=7-12 scaling=1.00 benchmark_Eint=-1.457 benchmark_unit=kcal/mol group=HBCNO
  C   -0.392263905   0.352440826  -1.913020996
  C    0.489402732  -0.630466163  -1.813177027
  H   -0.728193865   0.718731553  -2.873759549
  H   -0.814003269   0.830984699  -1.039500919
  H    0.909539450  -1.107186868  -2.688547813
  H    0.826972540  -0.998035454  -0.853638742
  C   -0.543104050  -0.299505575   1.886716609
  C    0.446165893   0.579445658   1.839609244
  H   -0.969457315  -0.726759403   0.989171508
  H   -0.966896696  -0.627802296   2.826207891
  H    0.871627702   0.909058118   0.901443986
  H    0.870852418   1.004836683   2.738915747
