40
charge=0 charge_a=0 charge_b=0 selection_a=1-20 selection_b=21-40 scaling=1.00 benchmark_Eint=-2.435 benchmark_unit=kcal/mol group=HBCNO
C          2.02453        0.57551       -0.92717
C          2.66644       -0.37373        0.10743
C          2.03768       -0.18017        1.49315
C          2.41522       -1.81504       -0.35436
C          4.17873       -0.13539        0.19651
C          2.13132        2.07083       -0.63959
H          0.97057        0.30900       -1.02261
H          2.47834        0.36762       -1.89994
H          2.22520        0.81827        1.88609
H          0.95835       -0.33087        1.45913
H          2.45138       -0.89656        2.20397
H          2.85455       -1.99277       -1.33704
H          1.34676       -2.02292       -0.42339
H          2.85245       -2.53122        0.34262
H          4.65029       -0.24896       -0.78091
H          4.40884        0.86291        0.56693
H          4.64116       -0.85258        0.87590
H          1.63972        2.34054        0.29406
H          3.16775        2.40114       -0.57915
H          1.65259        2.64431       -1.43325
C         -1.79623       -0.82183       -0.43821
C         -2.57590        0.38415        0.12732
C         -3.07605        0.08774        1.54659
C         -1.62358        1.58574        0.17906
C         -3.76618        0.73224       -0.77482
C         -2.56949       -2.13059       -0.57931
H         -0.92856       -0.99310        0.20292
H         -1.39684       -0.53898       -1.41571
H         -3.79777       -0.72802        1.55895
H         -2.24834       -0.18448        2.20345
H         -3.56457        0.96532        1.97175
H         -1.23934        1.82629       -0.81294
H         -0.76968        1.38269        0.82536
H         -2.13264        2.46989        0.56480
H         -3.43790        0.92600       -1.79728
H         -4.50028       -0.07198       -0.80383
H         -4.27305        1.62717       -0.41185
H         -2.94852       -2.48332        0.37918
H         -3.41678       -2.03102       -1.25668
H         -1.92276       -2.91105       -0.98009
