25
charge=0 charge_a=0 charge_b=0 selection_a=1-7 selection_b=8-25 scaling=1.00 benchmark_Eint=-4.033 benchmark_unit=kcal/mol group=HBCNO
  C    0.251075631   0.000046826   3.724863329
  C   -0.621116670  -0.000002212   2.902924599
  C   -1.676502475  -0.000013393   1.904671502
  H    1.018592907   0.000055696   4.456313949
  H   -2.658125544  -0.000016532   2.378744036
  H   -1.603375838  -0.879640106   1.266052985
  H   -1.603383082   0.879611994   1.266050951
  C    0.718758288   2.419950807  -0.363169078
  C   -0.276618298   2.420886526  -1.363772316
  C   -0.752084108   1.238994912  -1.867021138
  C   -0.260435673  -0.000000330  -1.392661171
  C   -0.752086596  -1.238991017  -1.867029608
  C   -0.276623241  -2.420886865  -1.363788546
  C    0.718753115  -2.419959955  -0.363184665
  C    1.219597041  -1.237557897   0.112078130
  C    0.748220566  -0.000004586  -0.384097318
  C    1.219599209   1.237544716   0.112085555
  H    1.080788420   3.359052637   0.030373003
  H   -0.663811598   3.360941863  -1.730570588
  H   -1.516872061   1.237239422  -2.632076186
  H   -1.516874854  -1.237228566  -2.632084342
  H   -0.663818883  -3.360938888  -1.730592920
  H    1.080780443  -3.359065417   0.030351369
  H    1.969340834  -1.232324034   0.890486658
  H    1.969343247   1.232304395   0.890493712
