15
charge=0 charge_a=0 charge_b=0 selection_a=1-7 selection_b=8-15 scaling=1.00 benchmark_Eint=-1.598 benchmark_unit=kcal/mol group=HBCNO
  C   -1.325376983   0.267636987  -1.714388893
  C   -1.387167100   0.429951554  -0.529056648
  C   -1.452907442   0.622505079   0.909628219
  H   -1.270913034   0.125275940  -2.763786494
  H   -1.171887726   1.640657636   1.179388449
  H   -0.776077835  -0.061136884   1.421885377
  H   -2.461393744   0.441710864   1.281748497
  C    1.637164342  -1.504346664   0.433856003
  C    2.271387545  -0.180192285   0.018499076
  H    2.287130807  -2.347049156   0.197616821
  H    0.689954759  -1.661959765  -0.080670512
  H    1.444878631  -1.534008782   1.507202367
  H    2.465456260  -0.156355006  -1.053517391
  H    3.218986518  -0.014091199   0.531410554
  H    1.617877052   0.661547648   0.245070262
