28
charge=0 charge_a=0 charge_b=0 selection_a=1-10 selection_b=11-28 scaling=1.00 benchmark_Eint=-4.125 benchmark_unit=kcal/mol group=HBCNO
  C   -0.940929117  -1.008787201  -1.381448725
  C   -0.578188504   0.272642866  -1.348417936
  C    0.646515853   0.783103460  -1.934562221
  C    1.017319337   2.063398209  -1.900381369
  H   -1.852793580  -1.350966200  -0.916383901
  H   -0.324265137  -1.756628120  -1.862650924
  H   -1.211470239   0.995050712  -0.846631619
  H    1.285874417   0.054784025  -2.422485762
  H    0.403425587   2.810496321  -1.415637621
  H    1.939777844   2.399434314  -2.350865049
  C    1.339996741  -1.442114080   1.741853917
  C    0.103041776  -2.047458743   2.048019898
  C   -1.017911047  -1.280357165   2.220696486
  C   -0.959422978   0.126402800   2.090395682
  C   -2.104410513   0.945494443   2.226740915
  C   -2.018789133   2.303853984   2.070308220
  C   -0.778432693   2.909324920   1.777148732
  C    0.348926903   2.143465570   1.642116280
  C    0.292496653   0.738264570   1.787490025
  C    1.431335690  -0.081999832   1.617843745
  H    2.216052605  -2.059490892   1.602535349
  H    0.044056350  -3.122445358   2.143134674
  H   -1.968374380  -1.742833882   2.450959404
  H   -3.054085028   0.479217799   2.452517476
  H   -2.902072977   2.918226137   2.172615461
  H   -0.723213729   3.982140976   1.657698729
  H    1.299062663   2.602535010   1.406772480
  H    2.375585639   0.384944700   1.373820532
