32
charge=0 charge_a=0 charge_b=0 selection_a=1-17 selection_b=18-32 scaling=1.00 benchmark_Eint=-4.496 benchmark_unit=kcal/mol group=HBCNO
  C   -2.388788904  -0.269466289   2.039359381
  C   -2.258088487   0.265017148   0.616909401
  C   -1.756463267   1.705040134   0.566177073
  C   -1.615607190   2.250058368  -0.852058635
  C   -1.112226923   3.689912064  -0.893695499
  H   -2.732874483  -1.303709567   2.047569480
  H   -3.097146932   0.323112059   2.620886091
  H   -1.428052644  -0.237758970   2.554100975
  H   -3.226313625   0.204336515   0.112207584
  H   -1.575751995  -0.370389639   0.051257093
  H   -0.788213442   1.762358340   1.071548626
  H   -2.434769098   2.348799998   1.135286379
  H   -2.582299082   2.186135902  -1.358701160
  H   -0.937033322   1.604417927  -1.413650567
  H   -1.796517505   4.359982506  -0.371026465
  H   -1.011573470   4.051560626  -1.917240060
  H   -0.137108972   3.777993195  -0.412894938
  C    1.475291433   0.077371608  -0.259238703
  C    2.052474503   1.461575452  -0.369916750
  C    1.076667857  -0.624505471  -1.395852300
  C    0.565546631  -1.912300289  -1.298606760
  C    0.441969537  -2.522040033  -0.056380178
  C    0.832167509  -1.832224868   1.084335737
  C    1.342034613  -0.544823985   0.980948078
  H    1.831145691   2.054997448   0.515690913
  H    1.658020251   1.987805868  -1.237113602
  H    3.138597742   1.423527030  -0.474930975
  H    1.162683459  -0.154545702  -2.366673565
  H    0.257686085  -2.436709740  -2.192342630
  H    0.038616493  -3.521392244   0.022497695
  H    0.730262227  -2.292859567   2.056786172
  H    1.634683659  -0.011501698   1.875780190
