21
charge=0 charge_a=0 charge_b=0 selection_a=1-6 selection_b=7-21 scaling=1.00 benchmark_Eint=-2.859 benchmark_unit=kcal/mol group=HBCNO
  C   -1.346478572  -0.739074727  -1.728878244
  C   -0.327837789  -0.103510416  -1.794867152
  C    0.830989778   0.610612300  -1.846762534
  C    1.855694362   1.241013305  -1.882968087
  H   -2.235154006  -1.310601919  -1.641727947
  H    2.758179372   1.796988103  -1.918356883
  C   -0.014783079  -0.533937462   1.668519774
  C    0.418107408   0.879935323   1.939452705
  C    0.884541147  -1.469764841   1.159913136
  C    0.477351259  -2.761394761   0.856404864
  C   -0.843060026  -3.142915631   1.059096770
  C   -1.747963128  -2.222437971   1.573467101
  C   -1.333991481  -0.931369010   1.876153789
  H    1.449929709   0.919958705   2.285904114
  H   -0.213208924   1.352451698   2.690171066
  H    0.358011000   1.479386763   1.029205075
  H    1.911897408  -1.177873012   0.988320401
  H    1.190275425  -3.469504655   0.457805438
  H   -1.161870876  -4.148737376   0.824846600
  H   -2.776013203  -2.510956715   1.744744434
  H   -2.045663845  -0.220210674   2.274449670
