35
charge=0 charge_a=0 charge_b=0 selection_a=1-18 selection_b=19-35 scaling=1.00 benchmark_Eint=-2.763 benchmark_unit=kcal/mol group=HBCNO
  C   -1.307529016  -0.877650309  -0.855712552
  C   -2.524653054  -0.485380731  -1.695792253
  C   -2.588944015   1.028501247  -1.909728981
  C   -1.292295511   1.561840517  -2.522931561
  C   -0.075458972   1.168749463  -1.682664217
  C   -0.010565681  -0.344587415  -1.467330170
  H   -1.255936104  -1.962108774  -0.744633746
  H   -1.423572760  -0.467299320   0.151515565
  H   -3.441412315  -0.839731043  -1.221582160
  H   -2.464112604  -0.982495863  -2.668777739
  H   -2.756814741   1.518890440  -0.945913442
  H   -3.440361258   1.285476684  -2.542109547
  H   -1.343037054   2.646642976  -2.630244146
  H   -1.178873080   1.153233634  -3.531752582
  H   -0.137528545   1.666494556  -0.711125938
  H    0.842196403   1.522930708  -2.155443904
  H    0.839425263  -0.601047054  -0.834378518
  H    0.159058691  -0.836252087  -2.430071347
  C    0.154166491   1.715335823   2.380376851
  C    1.411508291   0.958916676   1.962196347
  C    1.295686834  -0.549649499   2.162102445
  C    2.530115994  -1.322334812   1.706045091
  C    2.383211000  -2.832163711   1.870680160
  H    0.261850747   2.788967590   2.226369310
  H   -0.070536064   1.551214265   3.435294049
  H   -0.711152312   1.383216515   1.805212963
  H    2.269734892   1.332457950   2.526878984
  H    1.628099012   1.164981660   0.911395565
  H    0.421242227  -0.918538223   1.619573235
  H    1.105749740  -0.761852237   3.218699819
  H    3.401600710  -0.973540570   2.266297851
  H    2.732023695  -1.087862586   0.657438749
  H    2.207161294  -3.097799336   2.914148661
  H    3.276643996  -3.361211641   1.539365130
  H    1.539535113  -3.207524972   1.289525599
