29
charge=0 charge_a=0 charge_b=0 selection_a=1-11 selection_b=12-29 scaling=1.00 benchmark_Eint=-3.013 benchmark_unit=kcal/mol group=HBCNO
  C   -1.571268287  -0.275248893  -1.865116970
  C   -0.355894854  -1.149352163  -1.765013091
  C    0.713980723  -0.385008951  -1.491292379
  C    0.295772019   1.014524066  -1.389693794
  C   -1.027866067   1.098404570  -1.602061383
  H   -2.339988893  -0.557815081  -1.138290678
  H   -2.046763396  -0.345891648  -2.848881036
  H   -0.369954187  -2.219348561  -1.894233046
  H    1.727109315  -0.731757737  -1.357961822
  H    0.959492854   1.837177400  -1.172691606
  H   -1.629050327   1.992937894  -1.590165043
  C    1.119384612   0.360929361   2.407588494
  C   -0.334291361   0.747013493   2.688960160
  C   -1.307918421  -0.240873174   2.043070013
  C   -1.017702335  -1.679384084   2.476161700
  C    0.435967549  -2.064042868   2.192562985
  C    1.410441472  -1.077783053   2.840468602
  H    1.798201545   1.051791114   2.910960838
  H    1.309832031   0.457043937   1.335778507
  H   -0.531571319   1.757790376   2.328066281
  H   -0.499007023   0.761789231   3.770936434
  H   -1.211655643  -0.167183965   0.958563358
  H   -2.336949195   0.028165966   2.288906757
  H   -1.695371388  -2.369554610   1.970114002
  H   -1.213577016  -1.779694257   3.548368705
  H    0.596442740  -2.067100499   1.111474036
  H    0.634602102  -3.077826009   2.545038634
  H    2.439250608  -1.345761351   2.592901562
  H    1.323228377  -1.149402944   3.929182298
