27
charge=0 charge_a=0 charge_b=0 selection_a=1-7 selection_b=8-27 scaling=1.00 benchmark_Eint=-2.541 benchmark_unit=kcal/mol group=HBCNO
  C   -2.670778362  -1.780890397  -0.163540230
  C   -2.317204365  -1.135443190  -1.108947600
  C   -1.879708948  -0.347125034  -2.248326459
  H   -2.984622335  -2.352759033   0.672513260
  H   -0.946957695  -0.736602139  -2.655411645
  H   -1.709228740   0.689540219  -1.958180807
  H   -2.627568141  -0.359085187  -3.041088284
  C    1.321012251  -0.439256149  -0.116610462
  C    1.001723396   0.406048199   1.135361053
  C   -0.148762881   1.382374406   0.857688418
  C    0.573432860  -0.553714852   2.252857541
  C    2.238956883   1.187977656   1.592721664
  C    1.769709711   0.327564374  -1.358687239
  H    0.435118111  -1.029473387  -0.358051587
  H    2.099144512  -1.158379077   0.153049658
  H    0.112521932   2.104628348   0.084775572
  H   -1.044188216   0.847385401   0.541935179
  H   -0.396769103   1.944558629   1.758917722
  H    1.370161069  -1.261167508   2.487624312
  H   -0.307029419  -1.123902762   1.955487837
  H    0.330327300  -0.007570599   3.165293999
  H    3.081043876   0.517827953   1.773220403
  H    2.548087050   1.924398202   0.851729108
  H    2.033038853   1.722763012   2.520759766
  H    1.014531138   1.037597852  -1.693747704
  H    2.690539880   0.882751587  -1.183939014
  H    1.958081684  -0.360629257  -2.183023430
