23
charge=0 charge_a=0 charge_b=0 selection_a=1-6 selection_b=7-23 scaling=1.00 benchmark_Eint=-2.112 benchmark_unit=kcal/mol group=HBCNO
  C   -0.699745955  -2.558380180  -2.071148567
  C    0.148518967  -1.726712127  -2.262392523
  C    1.103678919  -0.777515669  -2.468964823
  C    1.940963481   0.068621963  -2.642668823
  H   -1.447040620  -3.292043286  -1.902158711
  H    2.676313216   0.817999997  -2.793405314
  C   -2.336026484   2.310104093  -0.718498625
  C   -1.065282599   1.529245195  -0.382866792
  C    0.157114490   2.445652747  -0.436887658
  C   -1.207229758   0.829583569   0.974782481
  C   -0.054340420  -0.103878857   1.336562810
  H   -2.264419158   2.780383568  -1.699718103
  H   -2.510841652   3.099706903   0.015679555
  H   -3.211439208   1.659783422  -0.721148938
  H   -0.936626747   0.753169115  -1.141943641
  H    0.087690563   3.225388675   0.325218282
  H    0.231482361   2.935736879  -1.408117670
  H    1.082872373   1.897132277  -0.273497308
  H   -2.138550015   0.257728702   0.971098534
  H   -1.322825152   1.591317321   1.752376129
  H    0.087658258  -0.864076213   0.568409817
  H   -0.248208100  -0.615316212   2.279499349
  H    0.885627610   0.435574370   1.446126066
