28
charge=0 charge_a=0 charge_b=0 selection_a=1-10 selection_b=11-28 scaling=1.00 benchmark_Eint=-2.385 benchmark_unit=kcal/mol group=HBCNO
  C   -2.875704388   2.068106623  -0.739752912
  C   -1.661601598   1.977487169  -1.282396962
  C   -1.241248918   0.903618289  -2.162655878
  C   -0.020620594   0.800470906  -2.688045674
  H   -3.144774698   2.882353612  -0.083435825
  H   -3.636814792   1.324372359  -0.936973209
  H   -0.919839989   2.737161011  -1.060999213
  H   -1.983461920   0.144298329  -2.384751811
  H    0.744421313   1.537788964  -2.482485309
  H    0.251759421  -0.020795987  -3.334109879
  C    0.440630131  -1.867098972   0.208730234
  C    1.700314046  -2.207599746   1.007920046
  C    2.479256469  -0.945563030   1.385208591
  C    1.594483044   0.053190127   2.134591381
  C    0.335536377   0.392118448   1.333913184
  C   -0.444259081  -0.867696578   0.955724589
  H   -0.121099512  -2.775478370  -0.016893531
  H    0.730543149  -1.431399750  -0.751421694
  H    2.336568586  -2.888847302   0.440103381
  H    1.413911388  -2.737200143   1.921898521
  H    2.857654672  -0.473495903   0.473207668
  H    3.352063644  -1.204781003   1.987071519
  H    2.156516862   0.961508312   2.359337750
  H    1.303122047  -0.379270868   3.096820361
  H    0.623509133   0.916361938   0.418775522
  H   -0.301865181   1.075893040   1.896493752
  H   -1.310021053  -0.601730195   0.349219044
  H   -0.829743363  -1.338122774   1.865762915
