24
charge=0 charge_a=0 charge_b=0 selection_a=1-4 selection_b=5-24 scaling=1.00 benchmark_Eint=-1.800 benchmark_unit=kcal/mol group=HBCNO
  C    0.002655481  -0.598144658  -2.765817431
  C   -0.002563101   0.597036525  -2.766127140
  H    0.007734054  -1.659312264  -2.759161530
  H   -0.007718340   1.658204848  -2.760016383
  C   -0.218896260  -3.202981171   0.798938292
  C    0.542319283  -1.880826955   0.832623127
  C   -0.376387732  -0.663089060   0.878883865
  C    0.376381689   0.663302619   0.878929230
  C   -0.542327285   1.881046154   0.832868369
  C    0.218881721   3.203210162   0.799413772
  H    0.457766398  -4.056691772   0.759863995
  H   -0.873272840  -3.255951557  -0.073042483
  H   -0.846816520  -3.317126610   1.683812879
  H    1.186521522  -1.805015207  -0.047284161
  H    1.210270215  -1.864228198   1.697883491
  H   -1.014012749  -0.722684277   1.766274915
  H   -1.048001231  -0.689764977   0.016959888
  H    1.047939127   0.690069804   0.016963190
  H    1.014066677   0.722801419   1.766283912
  H   -1.210277651   1.864296966   1.698126178
  H   -1.186528668   1.805382532  -0.047054106
  H    0.846869578   3.317157569   1.684266444
  H   -0.457788519   4.056925930   0.760587055
  H    0.873185149   3.256382177  -0.072608067
