19
charge=0 charge_a=0 charge_b=0 selection_a=1-4 selection_b=5-19 scaling=1.00 benchmark_Eint=-1.635 benchmark_unit=kcal/mol group=HBCNO
  C   -2.306908112  -1.292211914  -0.702114044
  C   -1.938889143  -0.841941030  -1.746303009
  H   -2.629948324  -1.689888379   0.227087651
  H   -1.612037121  -0.442447998  -2.673447094
  C    0.301925724   1.621507855   0.229969105
  C   -0.027973913   0.674737091   1.401126671
  C    1.671863319   1.148584764  -0.267188541
  C    0.794153180  -0.619009728   1.147461864
  C    1.569921748  -0.376562706  -0.162509370
  H   -0.435097678   1.494667858  -0.564379610
  H    0.289659277   2.670970833   0.521398587
  H    0.264050189   1.127938776   2.348250362
  H   -1.096421875   0.475752687   1.461735630
  H    1.905856480   1.494824826  -1.273630797
  H    2.458029534   1.517084957   0.396703825
  H    1.486581802  -0.793656019   1.970730028
  H    0.159309113  -1.500325195   1.075630325
  H    0.994985877  -0.759780235  -1.006835145
  H    2.539015601  -0.873709681  -0.175497379
