37
charge=0 charge_a=0 charge_b=0 selection_a=1-20 selection_b=21-37 scaling=1.00 benchmark_Eint=-2.644 benchmark_unit=kcal/mol group=HBCNO
  C   -0.320172894   1.003369145  -1.474824866
  C    0.285409040  -0.096530695  -2.372600121
  C    1.393858795  -0.856053069  -1.632936170
  C   -0.833829255  -1.081571794  -2.733422784
  C    0.852375999   0.508586343  -3.662649239
  C    0.636131714   2.089221115  -0.988305975
  H   -0.775775990   0.518428097  -0.608542010
  H   -1.140999130   1.472723361  -2.023566124
  H    2.232330815  -0.206867476  -1.384444636
  H    1.017664253  -1.291195057  -0.707114846
  H    1.778488838  -1.667961533  -2.251290083
  H   -1.641444181  -0.578252694  -3.266844088
  H   -1.257203426  -1.537411933  -1.837383674
  H   -0.459152282  -1.882958564  -3.371402070
  H    0.088356701   1.074631530  -4.197847092
  H    1.687552197   1.178260423  -3.461203629
  H    1.213809357  -0.276467330  -4.327936723
  H    1.450300626   1.676542496  -0.395061246
  H    1.073895135   2.644772037  -1.816726735
  H    0.108415278   2.805793930  -0.359101655
  C   -2.179056438  -0.235318222   3.288524254
  C   -0.742463548  -0.637094769   2.953405161
  C   -0.728608298  -1.705153354   1.858839991
  C    0.084647648   0.598590494   2.576485471
  C    1.571261170   0.331342627   2.358502395
  H   -2.770738641  -1.097387315   3.597640562
  H   -2.667673401   0.206730107   2.417564190
  H   -2.208439432   0.499273840   4.093817363
  H   -0.294122462  -1.071811875   3.853309252
  H   -1.148990523  -1.310594740   0.931769283
  H   -1.326267994  -2.568957856   2.150754877
  H    0.278314559  -2.058917315   1.643899361
  H   -0.030184949   1.343275467   3.367812163
  H   -0.342854270   1.046882887   1.675867357
  H    2.015913981  -0.143374611   3.234819240
  H    2.111494331   1.259865522   2.175505015
  H    1.746403983  -0.320152175   1.504005367
