19
charge=0 charge_a=0 charge_b=0 selection_a=1-4 selection_b=5-19 scaling=1.00 benchmark_Eint=-3.266 benchmark_unit=kcal/mol group=HBCNO
  C    0.360034764   0.311694248  -1.488469304
  C   -0.180867729  -0.168189493  -2.441270312
  H    0.836299998   0.733119169  -0.637089679
  H   -0.658348928  -0.591386591  -3.289044380
  C   -0.076986784  -0.427683759   1.865753391
  C   -1.123792687  -1.504720001   1.810961793
  C   -0.438263735   0.917086500   1.939455117
  C    0.524232648   1.918476933   1.925556675
  C    1.872421142   1.590122725   1.840773664
  C    2.246586043   0.252796508   1.778840113
  C    1.279010660  -0.743853549   1.793044069
  H   -2.020147732  -1.217157139   2.358187954
  H   -0.754173508  -2.440698039   2.226584254
  H   -1.416342263  -1.695979683   0.776441527
  H   -1.485429854   1.182280721   1.997516411
  H    0.221931803   2.954917777   1.978739594
  H    2.623045730   2.367338121   1.828941284
  H    3.292146779  -0.014439883   1.717155010
  H    1.579026540  -1.781625723   1.736091589
