27
charge=0 charge_a=0 charge_b=0 selection_a=1-15 selection_b=16-27 scaling=1.00 benchmark_Eint=-3.412 benchmark_unit=kcal/mol group=HBCNO
  C   -1.541365226  -0.898664958   1.750609598
  C   -1.757181514   0.301450416   0.793295461
  C   -2.234974635  -2.091250471   1.074328977
  C   -2.310349850  -0.295467212  -0.524579965
  C   -2.058967482  -1.805845179  -0.419732488
  H   -0.475273501  -1.103171735   1.847465570
  H   -1.922750423  -0.708349287   2.752760988
  H   -2.453759107   1.025435293   1.213848866
  H   -0.820756304   0.825640289   0.620863881
  H   -1.823104979  -3.052027908   1.381986453
  H   -3.299201257  -2.098617699   1.321961333
  H   -3.383233000  -0.111479591  -0.600271212
  H   -1.845516894   0.146888328  -1.403747346
  H   -1.033534554  -2.034175289  -0.716625762
  H   -2.723469719  -2.392993501  -1.052977671
  C    2.134337280   0.097160536   0.718867641
  C    2.055297465   1.479103638   0.594811836
  C    1.570101077   2.044916275  -0.578739150
  C    1.163691506   1.228438710  -1.627417683
  C    1.241959905  -0.153448615  -1.502495909
  C    1.727215476  -0.718827699  -0.329786940
  H    2.508101325  -0.342946933   1.632537418
  H    2.368089006   2.113867293   1.411767387
  H    1.505565774   3.119590903  -0.674097275
  H    0.782643855   1.667951014  -2.538365310
  H    0.919606398  -0.788518129  -2.315355824
  H    1.783061319  -1.793661169  -0.230968933
