33
charge=0 charge_a=0 charge_b=0 selection_a=1-15 selection_b=16-33 scaling=1.00 benchmark_Eint=-4.882 benchmark_unit=kcal/mol group=HBCNO
  C    1.485150088   0.852924931  -3.296723252
  C    1.956971282   1.115273293  -1.836793574
  C    0.581823921   1.382035895  -1.199643842
  C   -0.289264066   0.572741474  -1.791179867
  C    0.488187801  -0.249331519  -2.834180347
  C    1.482089140  -1.136866241  -2.061293959
  C    2.353550820  -0.327199831  -1.469498287
  H    2.275695873   0.473235042  -3.941410300
  H    0.993040711   1.712325231  -3.747822060
  H    2.715743424   1.873876865  -1.675693484
  H    0.413175243   2.041753367  -0.364952340
  H   -1.327984956   0.424284134  -1.547572707
  H   -0.106525025  -0.748257732  -3.592166739
  H    1.413641754  -2.210037270  -1.988101631
  H    3.159261466  -0.588174256  -0.802812354
  C    0.302625701   1.724654566   2.667691467
  C    1.320834451   0.771344206   2.453907498
  C    1.035351562  -0.417502032   1.837509309
  C   -0.275982971  -0.709223804   1.398726459
  C   -0.594329598  -1.912784400   0.729896114
  C   -1.867455159  -2.154148575   0.287442856
  C   -2.887348900  -1.202545317   0.500693211
  C   -2.611534538  -0.028271109   1.149656740
  C   -1.304724965   0.254255027   1.611618118
  C   -0.979324953   1.469542215   2.258292833
  H    0.540033593   2.659126972   3.156147489
  H    2.329164372   0.985841534   2.778601846
  H    1.814149847  -1.146742367   1.664290263
  H    0.191473826  -2.635574769   0.561260534
  H   -2.096872280  -3.075359751  -0.229181031
  H   -3.888711292  -1.404824319   0.147786671
  H   -3.390835610   0.704226339   1.311879659
  H   -1.761232593   2.199696664   2.418497387
