18
charge=0 charge_a=0 charge_b=0 selection_a=1-4 selection_b=5-18 scaling=1.00 benchmark_Eint=-1.543 benchmark_unit=kcal/mol group=HBCNO
  C    0.614661550   0.195214723  -1.601942518
  C   -0.558831035  -0.027836009  -1.643183385
  H    1.656457765   0.392746122  -1.559636755
  H   -1.600658185  -0.227359727  -1.674123493
  C   -1.694343626  -1.467429276   1.805551618
  C   -0.722365362  -0.314724538   2.038218868
  C    0.740253545  -0.747121947   1.974342495
  C    1.712642339   0.415584202   2.147913609
  H   -2.731541261  -1.134945067   1.852976200
  H   -1.563104307  -2.250767322   2.553734560
  H   -1.531694635  -1.919888310   0.826097872
  H   -0.920730177   0.144907615   3.010369761
  H   -0.892370072   0.463185072   1.290606693
  H    0.921513923  -1.234883661   1.014037165
  H    0.927163565  -1.502474749   2.742586036
  H    1.561646473   1.166548258   1.370895780
  H    2.749850227   0.083779381   2.096067994
  H    1.570208293   0.908100689   3.111122294
