24
charge=0 charge_a=0 charge_b=0 selection_a=1-7 selection_b=8-24 scaling=1.00 benchmark_Eint=-0.906 benchmark_unit=kcal/mol group=HBCNO
  C   -1.428340413  -1.808781840  -1.814591159
  C   -2.001094837  -2.564198974  -2.547441955
  C   -2.695679385  -3.480878457  -3.436658768
  H   -0.921181973  -1.140631779  -1.165383614
  H   -2.415132524  -4.513521912  -3.228211516
  H   -2.454342848  -3.270740364  -4.478818452
  H   -3.776007287  -3.395480470  -3.317913140
  C    2.177365722   0.615169223   2.308657085
  C    1.163234004   1.447006710   1.514829934
  C    0.408105590   0.535548588   0.539902367
  C    0.166160864   2.097456433   2.480970709
  C    1.899331008   2.537355455   0.727488955
  H    1.678819215  -0.170235544   2.878214180
  H    2.729685693   1.239867112   3.011806504
  H    2.899734439   0.139905228   1.643737889
  H   -0.125141781  -0.250741482   1.076568890
  H    1.096561857   0.059411135  -0.160038761
  H   -0.321715328   1.104137711  -0.038597435
  H   -0.372841618   1.342177902   3.054425883
  H   -0.568768721   2.695861015   1.940935841
  H    0.677678899   2.752488045   3.187370772
  H    2.616032408   2.100734546   0.030676590
  H    2.446048957   3.201432461   1.398164449
  H    1.199465316   3.144565215   0.151894435
