24
charge=0 charge_a=0 charge_b=0 selection_a=1-12 selection_b=13-24 scaling=1.00 benchmark_Eint=-2.818 benchmark_unit=kcal/mol group=HBCNO
  C   -1.613009046   2.474911424  -1.052832886
  C   -0.847746039   1.319663609  -0.944346867
  C   -1.095237637   0.412971511   0.079509812
  C   -2.109980631   0.663862343   0.995452375
  C   -2.875998310   1.819367665   0.888833346
  C   -2.627570802   2.725368331  -0.135663099
  H   -1.419611471   3.179506734  -1.849742839
  H   -0.056131279   1.122996514  -1.652869905
  H   -0.496810259  -0.481095147   0.163126986
  H   -2.302752811  -0.040594875   1.792592398
  H   -3.664630366   2.013620980   1.602361974
  H   -3.222652353   3.624018019  -0.219191052
  C    1.745896375  -1.918318314   1.372207691
  C    2.378960579  -0.734081111   1.013525454
  C    2.496055756  -0.387254295  -0.327019038
  C    1.979184152  -1.223769923  -1.309143733
  C    1.343541289  -2.406973832  -0.950945538
  C    1.227607247  -2.754767467   0.390138299
  H    1.652925013  -2.186840094   2.415028927
  H    2.775060778  -0.080081835   1.777198048
  H    2.983020308   0.536617472  -0.604985277
  H    2.067981504  -0.953075386  -2.351877091
  H    0.937269246  -3.054990979  -1.714545546
  H    0.732211912  -3.674055090   0.668957029
