24
charge=0 charge_a=0 charge_b=0 selection_a=1-9 selection_b=10-24 scaling=1.00 benchmark_Eint=-2.569 benchmark_unit=kcal/mol group=HBCNO
  C   -1.756724342  -0.417996070   1.925307457
  C   -0.667868449   0.213091788   2.341599839
  C    0.634061214  -0.443057010   2.673593362
  H   -2.668956199   0.114537784   1.697142793
  H   -1.772172949  -1.492610348   1.793966382
  H   -0.699497388   1.292173291   2.452653696
  H    0.581302516  -1.522879126   2.542685144
  H    0.924736054  -0.236725321   3.705705917
  H    1.437360141  -0.061607492   2.039636660
  C    0.720268202   1.278081966  -0.997708340
  C   -0.730851493   1.027793070  -1.466108365
  C    1.492683922   0.022559843  -1.420609169
  C   -0.854841944  -0.504971595  -1.679849438
  C    0.478519535  -1.103446889  -1.198258841
  H    1.141750025   2.194665822  -1.408157723
  H    0.745855125   1.369479441   0.088466180
  H   -1.447168931   1.388600299  -0.730841387
  H   -0.933337655   1.559639777  -2.395071347
  H    1.754868932   0.082518942  -2.479802032
  H    2.418803429  -0.116703142  -0.863348882
  H   -1.704945500  -0.925510138  -1.145929139
  H   -1.000971886  -0.725806424  -2.737463823
  H    0.739088933  -2.024995571  -1.717560681
  H    0.418767563  -1.332437336  -0.133922079
