24
charge=0 charge_a=0 charge_b=0 selection_a=1-6 selection_b=7-24 scaling=1.00 benchmark_Eint=-2.103 benchmark_unit=kcal/mol group=HBCNO
  C   -0.193231934   2.512172451  -1.354384628
  C    0.858414219   1.931758178  -1.422780015
  C    2.045336051   1.266733700  -1.492155398
  C    3.089880192   0.672386469  -1.547560098
  H   -1.120047209   3.024268450  -1.292757946
  H    4.010284846   0.147388538  -1.596208938
  C    0.242610194  -1.452760200   0.193674009
  C    0.142646100  -0.418836362   1.316550488
  C   -1.286625830   0.105719063   1.464125066
  C   -2.285023557  -1.036250674   1.666070983
  C   -2.183003452  -2.071286220   0.543483782
  C   -0.753119986  -2.596533339   0.396414572
  H    1.260147801  -1.840945257   0.127615145
  H    0.036684192  -0.962249035  -0.761402090
  H    0.829966251   0.406552993   1.130659467
  H    0.453664898  -0.880965453   2.258764780
  H   -1.553900391   0.660048637   0.559892717
  H   -1.346726748   0.812920422   2.293334264
  H   -3.301906661  -0.644340614   1.727751101
  H   -2.081091500  -1.525748417   2.623443648
  H   -2.491631477  -1.608111442  -0.398795126
  H   -2.873319234  -2.896791043   0.725760384
  H   -0.693650676  -3.301996043  -0.434265464
  H   -0.482371556  -3.153443134   1.298900177
