18
charge=0 charge_a=0 charge_b=0 selection_a=1-6 selection_b=7-18 scaling=1.00 benchmark_Eint=-2.253 benchmark_unit=kcal/mol group=HBCNO
  C   -0.387246170   0.250318163  -1.755086102
  C    0.856517666   0.208712574  -2.206784771
  H   -1.207774906   0.566773472  -2.385609720
  H   -0.630968278  -0.029361233  -0.740315711
  H    1.106008682   0.488095424  -3.221784219
  H    1.674007337  -0.107960258  -1.573678647
  C   -1.274781929  -1.204261968   1.905663817
  C   -0.890734381   0.093345871   2.224600143
  C    0.424013556   0.497720711   2.025277491
  C    1.354912349  -0.395758365   1.508673842
  C    0.970996255  -1.692504985   1.188849632
  C   -0.344062198  -2.096848401   1.386852524
  H   -2.297778031  -1.518130514   2.058228432
  H   -1.615192206   0.788643688   2.624536966
  H    0.721594430   1.507987200   2.267663318
  H    2.376484360  -0.079722677   1.351221702
  H    1.693247561  -2.385445496   0.781068158
  H   -0.643521131  -3.103955953   1.133678230
