19
charge=0 charge_a=0 charge_b=0 selection_a=1-4 selection_b=5-19 scaling=1.00 benchmark_Eint=-2.104 benchmark_unit=kcal/mol group=HBCNO
  N   -1.090395007   2.579168485  -1.341616176
  N    0.119211780   2.784362510  -1.210858555
  H   -1.285128497   1.654073032  -0.929339834
  H    0.319282482   3.709142978  -1.622051485
  C   -0.037428849  -0.739687774  -0.430771722
  C   -0.290106058  -0.074823437   0.951821784
  C    0.822034019  -1.988571405  -0.145838968
  C    0.424331832  -0.969627830   1.986231766
  C    0.504180688  -2.341762188   1.310175420
  H   -0.982160299  -1.034490074  -0.888801965
  H    0.458215358  -0.061053158  -1.122580315
  H    0.081129790   0.947929524   0.983052743
  H   -1.358692400  -0.036908890   1.165872941
  H    0.622770637  -2.803169088  -0.840647270
  H    1.881369616  -1.739766909  -0.233904285
  H    1.434456545  -0.596931173   2.166451128
  H   -0.087635421  -0.991816605   2.947161128
  H   -0.464733360  -2.844142692   1.369210016
  H    1.243342961  -3.001311356   1.763433577
