21
charge=0 charge_a=0 charge_b=0 selection_a=1-4 selection_b=5-21 scaling=1.00 benchmark_Eint=-2.137 benchmark_unit=kcal/mol group=HBCNO
  N   -1.001030161   1.002620639  -2.343305829
  N   -0.045239026   0.488573019  -2.049484267
  N    1.065403759  -0.016611471  -1.868791703
  H    1.087170477  -0.516248184  -0.983041290
  C    0.374088843  -0.885007473   2.507610366
  C   -0.861117720  -0.144432423   1.995067524
  C   -0.482629209   1.253987136   1.505301494
  C   -1.581204015  -0.974753176   0.925038391
  C   -2.906797947  -0.392144277   0.442810415
  H    0.871482064  -0.327354472   3.301171917
  H    1.101778265  -1.029254633   1.704781175
  H    0.115407616  -1.869497552   2.897901693
  H   -1.555115794  -0.027757909   2.834012199
  H    0.228905197   1.199753629   0.678480958
  H   -0.007320629   1.826822924   2.301516921
  H   -1.347674471   1.818352379   1.162994467
  H   -1.756171828  -1.975152127   1.327664103
  H   -0.911222455  -1.116796146   0.070405788
  H   -3.586137960  -0.230070884   1.281087889
  H   -3.398347264  -1.068035835  -0.256156031
  H   -2.772863063   0.559881692  -0.067417219
