24
charge=0 charge_a=0 charge_b=0 selection_a=1-7 selection_b=8-24 scaling=1.00 benchmark_Eint=-2.034 benchmark_unit=kcal/mol group=HBCNO
  C   -1.559754996  -2.838899984   0.909605474
  N   -0.167207336  -3.196704422   0.642214621
  H   -2.229807392  -2.906447637   0.044502991
  H   -1.601504424  -1.817994378   1.286492299
  H   -1.953446796  -3.487954906   1.690827239
  H    0.221741984  -2.608527591  -0.082332784
  H   -0.095739514  -4.151705387   0.318162006
  C    0.680495638   1.575036075  -2.150805102
  C    0.638453986   1.647251620  -0.624258027
  C   -0.530746069   2.517064426  -0.160428623
  C    0.586847656   0.238202761  -0.020498939
  C    0.702826657   0.183372006   1.500511940
  H    0.756189674   2.568565839  -2.593439383
  H   -0.227202867   1.108147025  -2.539493654
  H    1.531085831   0.987082904  -2.497272546
  H    1.566415974   2.117884027  -0.282305946
  H   -1.482360338   2.066932221  -0.452443745
  H   -0.481650620   3.508529279  -0.611214199
  H   -0.540649708   2.646162212   0.920533153
  H    1.395403180  -0.353001025  -0.458708073
  H   -0.347540901  -0.237348928  -0.336283389
  H    1.611217351   0.685284449   1.837928948
  H    0.740806836  -0.847568212   1.849194735
  H   -0.142035362   0.668261754   1.988416546
