22
charge=0 charge_a=0 charge_b=0 selection_a=1-2 selection_b=3-22 scaling=1.00 benchmark_Eint=-0.676 benchmark_unit=kcal/mol group=HBCNO
  N    0.486180893  -3.754841592   0.417185018
  N   -0.050419072  -3.769770459   1.365787848
  C   -0.955051068   0.090433903   1.666814344
  C   -0.520794139   0.507533549   0.245232429
  C    0.963283158   0.195354003   0.015013669
  C   -1.359378842  -0.291752980  -0.760506239
  C   -0.769243888   2.004092198   0.019782456
  C   -0.226382192   0.764704071   2.827028044
  H   -0.834238465  -0.991827749   1.755069993
  H   -2.027145004   0.282349142   1.761475220
  H    1.605389349   0.782932977   0.669831673
  H    1.175384795  -0.859436042   0.193165845
  H    1.246942449   0.422436825  -1.013289193
  H   -2.423781357  -0.093800478  -0.626610781
  H   -1.200665471  -1.363826319  -0.639634981
  H   -1.095829399  -0.028635676  -1.785618468
  H   -1.815571804   2.257657328   0.197052823
  H   -0.157793653   2.618950256   0.678962413
  H   -0.527550716   2.282410226  -1.006703260
  H    0.842855956   0.556919513   2.810148834
  H   -0.355613170   1.846305922   2.814485998
  H   -0.612763838   0.402116842   3.779370913
