11
charge=0 charge_a=0 charge_b=0 selection_a=1-5 selection_b=6-11 scaling=1.00 benchmark_Eint=-1.558 benchmark_unit=kcal/mol group=HBCNO
  N    0.502371978  -0.815755775   3.657552124
  N    0.354501451  -0.592406193   2.557788023
  C    0.185772664  -0.337588920   1.304895665
  H    0.524707965  -1.063121183   0.588296632
  H   -0.285911445   0.589059666   1.033162894
  C   -1.079599736   2.167738175  -1.546691955
  C   -0.613758447   1.109900901  -1.881254273
  C   -0.085584903  -0.089112154  -2.255720219
  C    0.381291529  -1.148782561  -2.582779037
  H   -1.491134141   3.102162307  -1.258233750
  H    0.791553943  -2.081690121  -2.877836015
