27
charge=0 charge_a=0 charge_b=0 selection_a=1-9 selection_b=10-27 scaling=1.00 benchmark_Eint=-5.786 benchmark_unit=kcal/mol group=HBCNO
  N    0.753849391   1.127590793  -1.951456939
  C    1.641796132   0.274809412  -1.447372494
  N    1.469708639  -1.037297429  -1.319455733
  C    0.284101120  -1.479037635  -1.730737474
  N   -0.685767749  -0.726499179  -2.243116382
  C   -0.392932254   0.568730158  -2.327870118
  H    2.587640926   0.684500331  -1.114626736
  H    0.094037632  -2.541209216  -1.642756035
  H   -1.151129521   1.222931449  -2.738917736
  C    0.987050973  -1.387372502   2.211480481
  C   -0.191411667  -2.030123618   1.780327274
  C   -1.213125619  -1.303458865   1.228608668
  C   -1.107375776   0.099109885   1.081395645
  C   -2.135794126   0.875994599   0.499913934
  C   -1.995647114   2.231251573   0.357291989
  C   -0.817965292   2.874751420   0.790039073
  C    0.195650786   2.150671461   1.357871434
  C    0.084421621   0.749988455   1.519009637
  C    1.119488185  -0.030567618   2.085012828
  H    1.789351707  -1.973001712   2.636526620
  H   -0.282532052  -3.102090719   1.883345673
  H   -2.115232992  -1.794123642   0.889412953
  H   -3.033405671   0.378095283   0.159771384
  H   -2.787783803   2.813473740  -0.091821055
  H   -0.716114117   3.942985840   0.664065635
  H    1.102509637   2.641547454   1.684267321
  H    2.024251274   0.463963818   2.412072170
