22
charge=0 charge_a=0 charge_b=0 selection_a=1-7 selection_b=8-22 scaling=1.00 benchmark_Eint=-1.554 benchmark_unit=kcal/mol group=HBCNO
  C    2.507624871  -2.028842128  -0.800285447
  N    2.317298775  -2.507725417   0.568020178
  H    2.918629313  -1.015602832  -0.884020274
  H    1.551921528  -2.044001309  -1.321914439
  H    3.176343685  -2.707195941  -1.328861710
  H    1.697363145  -1.894074974   1.078587965
  H    3.194909783  -2.526521315   1.069554495
  C   -1.935220668   1.883869698   0.379576161
  C   -1.727668085   0.507166007   1.070574027
  C   -0.763517692   2.037963164  -0.611180222
  C   -0.452789740  -0.092221002   0.441563533
  C   -0.339202711   0.599189516  -0.920721233
  H   -2.884064935   1.896020471  -0.156012234
  H   -1.969120269   2.702650707   1.096189434
  H   -1.638193250   0.599467781   2.151570109
  H   -2.581299354  -0.142712480   0.881173965
  H   -1.035313387   2.606891389  -1.499133511
  H    0.066015086   2.562804623  -0.132691033
  H    0.418786360   0.166883884   1.047461700
  H   -0.491962378  -1.178251604   0.370924690
  H   -1.040036930   0.146604051  -1.626635348
  H    0.656178803   0.528361806  -1.356313378
