21
charge=0 charge_a=0 charge_b=0 selection_a=1-7 selection_b=8-21 scaling=1.00 benchmark_Eint=-2.134 benchmark_unit=kcal/mol group=HBCNO
  C   -1.225656604   1.016178262  -1.913447788
  N   -0.451827717   2.125397290  -1.357287937
  H   -2.310661851   1.092810727  -1.776127848
  H   -0.896162224   0.084084935  -1.457162422
  H   -1.027018060   0.940071982  -2.981753701
  H   -0.624615563   2.222642473  -0.365972573
  H   -0.713793695   3.000737322  -1.790071772
  C    1.559756911  -2.353434489  -0.102856067
  C    0.461667190  -1.678669435   0.713735225
  C    0.795653401  -0.235518015   1.084669572
  C   -0.319418816   0.452470082   1.867004046
  H    1.298695310  -3.381078425  -0.355349511
  H    2.500614215  -2.375417750   0.449105439
  H    1.738912247  -1.815633456  -1.034910874
  H    0.274874949  -2.252103883   1.625840418
  H   -0.475816464  -1.696753527   0.150769172
  H    1.008824838   0.331649813   0.176077223
  H    1.716442583  -0.222250271   1.673858222
  H   -1.248261761   0.470353760   1.293456541
  H   -0.058298496   1.481341803   2.116561665
  H   -0.527865229  -0.070095376   2.801804405
