22
charge=0 charge_a=0 charge_b=0 selection_a=1-8 selection_b=9-22 scaling=1.00 benchmark_Eint=-3.118 benchmark_unit=kcal/mol group=HBCNO
  N   -1.269028260   0.198966141  -1.205859347
  C   -0.049078282   0.758297042  -1.302210560
  N    0.860305087  -0.183683056  -1.436588557
  C    0.123967862  -1.328556585  -1.415050374
  N   -1.175238701  -1.148492174  -1.276176509
  H   -2.165984214   0.636059308  -1.089352698
  H    0.123462262   1.819557066  -1.264038120
  H    0.555128824  -2.310483710  -1.498807522
  C   -0.264745411   2.006079057   2.298627542
  C    0.895164728   1.023985083   2.164072671
  C    0.450301345  -0.436360603   2.192381642
  C    1.607564509  -1.413174816   2.009364412
  H    0.076665666   3.041007936   2.269862382
  H   -0.798680037   1.858731146   3.238546870
  H   -0.987425173   1.870585702   1.491657736
  H    1.614135644   1.196734104   2.969313392
  H    1.433548898   1.211071628   1.232365836
  H   -0.292133195  -0.602756896   1.408895831
  H   -0.059306436  -0.638092884   3.138731782
  H    2.109371590  -1.240905494   1.057151031
  H    1.262714625  -2.447068198   2.024825024
  H    2.348112042  -1.297855835   2.802509180
