21
charge=0 charge_a=0 charge_b=0 selection_a=1-4 selection_b=5-21 scaling=1.00 benchmark_Eint=-2.409 benchmark_unit=kcal/mol group=HBCNO
  N    1.118241232  -3.483346191  -0.271116083
  N    0.717114773  -2.673068514  -0.940298896
  N    0.301927102  -1.889771248  -1.796338694
  H    0.018000171  -1.011165630  -1.368721230
  C   -1.825138767   1.220266749   2.041161477
  C   -0.490540888   1.057422702   1.304502714
  C    0.509806673   2.100769480   1.815415044
  C    0.064571069  -0.348974703   1.558446293
  C   -0.711957889   1.258758592  -0.199377044
  H   -1.696515274   1.084042604   3.115425776
  H   -2.555732934   0.487541254   1.695917354
  H   -2.243538066   2.213957625   1.877118418
  H    0.685366034   1.981263869   2.885016858
  H    0.139341308   3.112692114   1.647635081
  H    1.469720239   2.006273695   1.306012932
  H    0.230738895  -0.519040154   2.622289645
  H    1.020040286  -0.492483343   1.051134116
  H   -0.629395677  -1.115273813   1.208971099
  H   -1.105908513   2.253148796  -0.410910533
  H   -1.430732897   0.535314747  -0.590432026
  H    0.225161568   1.157061607  -0.751092989
