18
charge=0 charge_a=0 charge_b=0 selection_a=1-8 selection_b=9-18 scaling=1.00 benchmark_Eint=-3.901 benchmark_unit=kcal/mol group=HBCNO
  N   -1.397530931   0.455407810  -0.891722077
  C   -0.442642770   1.397406615  -0.810395663
  N    0.485452065   1.166701917  -1.716524835
  C    0.037716774   0.039451043  -2.334830533
  N   -1.100618078  -0.434481077  -1.864806152
  H   -2.203327382   0.313884551  -0.308884477
  H   -0.455167090   2.196876544  -0.091180663
  H    0.560026916  -0.438420414  -3.145008826
  C    1.993339156   0.762323218   1.714016530
  C    1.138510899  -0.152259887   2.174989679
  C    0.470469597  -1.133248569   1.339247703
  C   -0.415455832  -2.023212290   1.788562352
  H    2.470279952   1.471932947   2.374328229
  H    2.236021222   0.826233814   0.661639700
  H    0.909418154  -0.185418059   3.235190390
  H    0.722591047  -1.121244050   0.285144239
  H   -0.686744688  -2.069668428   2.835544124
  H   -0.888223351  -2.732327941   1.125081621
