17
charge=0 charge_a=0 charge_b=0 selection_a=1-2 selection_b=3-17 scaling=1.00 benchmark_Eint=-1.215 benchmark_unit=kcal/mol group=HBCNO
  N   -0.237762024  -0.350317487  -1.880944068
  N   -0.478266564   0.524953612  -1.277549491
  C    2.819337398   0.456998571   0.475809888
  C    2.336792073   0.270992584   1.918031741
  C    2.785176652  -0.963295062  -0.124099587
  C    1.218218901  -0.766432294   1.776378330
  C    1.747359502  -1.756014793   0.718476069
  H    2.121736817   1.107201063  -0.055395220
  H    3.803715044   0.917921276   0.407840874
  H    3.145005270  -0.133455215   2.532480000
  H    2.004925380   1.198870919   2.382389125
  H    2.529781117  -0.949662391  -1.182281566
  H    3.767336878  -1.428472064  -0.045816784
  H    0.962198798  -1.253649900   2.716141111
  H    0.314879776  -0.273318120   1.412527560
  H    0.944059266  -2.160582909   0.105086946
  H    2.227107178  -2.605118270   1.204307110
