24
charge=0 charge_a=0 charge_b=0 selection_a=1-9 selection_b=10-24 scaling=1.00 benchmark_Eint=-4.060 benchmark_unit=kcal/mol group=HBCNO
  N   -2.483791819   0.025888859  -0.696967837
  C   -1.806558334   1.006403144  -1.287974091
  N   -0.654177468   0.869660895  -1.936835671
  C   -0.180045509  -0.372706998  -1.962456401
  N   -0.764452872  -1.433270140  -1.412124216
  C   -1.910776316  -1.170878433  -0.792041947
  H   -2.231571269   2.001726809  -1.237781152
  H    0.758169832  -0.534738841  -2.476281816
  H   -2.423404555  -2.003581430  -0.325504503
  C    2.349563761   0.493368012   2.433818884
  C    1.791869893   1.421073625   1.314305207
  C    2.306315853   0.634028119   0.096247571
  C    2.221359127  -0.657453479   0.397811037
  C    1.648745734  -0.755782281   1.822684516
  C    0.211823969  -0.203113105   1.776619494
  C    0.296723201   1.087881978   1.474966651
  H    1.980356192   0.749086597   3.424993449
  H    3.435349700   0.420972458   2.429374905
  H    2.052292761   2.473440617   1.347648035
  H    2.607444576   1.084439914  -0.835534164
  H    2.436453624  -1.506204902  -0.230725605
  H    1.777403644  -1.708785680   2.324326321
  H   -0.676666441  -0.795079601   1.921974306
  H   -0.506541464   1.788674529   1.317932440
