18
charge=0 charge_a=0 charge_b=0 selection_a=1-6 selection_b=7-18 scaling=1.00 benchmark_Eint=-3.718 benchmark_unit=kcal/mol group=HBCNO
  N    0.040010256  -0.687614615  -2.167774733
  N   -0.572603812   0.467262170  -1.579178029
  H    0.685021972  -1.129768656  -1.522577892
  H    0.565480001  -0.379651106  -2.973951661
  H    0.016088924   0.869007531  -0.858484574
  H   -1.425085604   0.161009027  -1.131746177
  C    1.170305058  -1.334684773   1.154004503
  C   -0.047445765  -1.063920065   1.767144522
  C   -0.373139645   0.240228181   2.121211750
  C    0.516137555   1.275325720   1.856583509
  C    1.730827283   1.006277443   1.235008931
  C    2.058983865  -0.299405996   0.885826938
  H    1.425627041  -2.350403025   0.886264129
  H   -0.740005529  -1.868321823   1.969921722
  H   -1.318757226   0.449828097   2.600693454
  H    0.262509502   2.289614472   2.130143677
  H    2.421554210   1.811095437   1.027057585
  H    3.006132324  -0.508950721   0.409023566
