20
charge=0 charge_a=0 charge_b=0 selection_a=1-2 selection_b=3-20 scaling=1.00 benchmark_Eint=-1.853 benchmark_unit=kcal/mol group=HBCNO
  N    0.545008116   2.410395484   1.374015680
  N   -0.545008095   2.410395486   1.374015693
  C   -0.705264127  -1.223298178   2.018677092
  C    0.705264119  -1.223298158   2.018677061
  C    1.396022401  -0.888380159   0.884450003
  C    0.713103756  -0.537005040  -0.303475275
  C    1.396329772  -0.169884710  -1.486419694
  C    0.705472480   0.181973742  -2.615429242
  C   -0.705472462   0.181973747  -2.615429245
  C   -1.396329769  -0.169884725  -1.486419704
  C   -0.713103768  -0.537005048  -0.303475268
  C   -1.396022420  -0.888380175   0.884450043
  H   -1.239296281  -1.486717268   2.920550449
  H    1.239296284  -1.486717227   2.920550403
  H    2.477597230  -0.882620002   0.883547431
  H    2.477988243  -0.168010170  -1.483008182
  H    1.239237634   0.462694743  -3.512259899
  H   -1.239237610   0.462694726  -3.512259909
  H   -2.477988244  -0.168010158  -1.483008225
  H   -2.477597258  -0.882620009   0.883547488
