22
charge=0 charge_a=0 charge_b=0 selection_a=1-7 selection_b=8-22 scaling=1.00 benchmark_Eint=-3.916 benchmark_unit=kcal/mol group=HBCNO
  C    0.068610413  -0.824846564  -2.825736278
  N    1.186614783  -0.028885205  -2.323046121
  H   -0.839235732  -0.254060081  -3.053281687
  H   -0.194636048  -1.579700050  -2.086153812
  H    0.375230503  -1.348459667  -3.730778660
  H    0.916536493   0.476065017  -1.489253236
  H    1.472637092   0.659089995  -3.006409240
  C    0.351851521  -0.490548678   0.901678223
  C    1.160383785  -1.756361159   0.852150786
  C   -1.014387439  -0.497087663   0.626650490
  C   -1.747149115   0.683658874   0.604493697
  C   -1.123140538   1.897065809   0.862424442
  C    0.237216220   1.917690998   1.149434360
  C    0.964295676   0.734927661   1.169553687
  H    1.674871989  -1.833521592  -0.107926119
  H    0.529842894  -2.636057369   0.968385141
  H    1.919453127  -1.774392251   1.633248915
  H   -1.508709489  -1.437211707   0.421352411
  H   -2.805444976   0.654484632   0.385864742
  H   -1.690494925   2.816607177   0.845663261
  H    0.732167749   2.855894542   1.358109990
  H    2.023794520   0.760325635   1.387185246
