22
charge=0 charge_a=0 charge_b=0 selection_a=1-5 selection_b=6-22 scaling=1.00 benchmark_Eint=-2.197 benchmark_unit=kcal/mol group=HBCNO
  N    0.618500300   1.177345079  -2.084190331
  N    1.442722475   0.500316834  -1.707025319
  C    2.375844037  -0.273922574  -1.267734381
  H    2.444828733  -0.422037803  -0.205523198
  H    3.028831604  -0.734419105  -1.986643858
  C   -2.374049886   0.737702647   0.896364399
  C   -1.465337068  -0.441835378   1.243719077
  C   -1.347103482  -1.393286588   0.051748883
  C   -0.101256127   0.061579906   1.732812577
  C    0.841647525  -1.029552085   2.233380134
  H   -3.363791275   0.397774851   0.590654496
  H   -1.953837904   1.316605016   0.071649101
  H   -2.496881472   1.408801644   1.747104747
  H   -1.925443662  -0.993014101   2.071055702
  H   -0.889343266  -0.888892611  -0.800636213
  H   -2.331523879  -1.740251979  -0.262949135
  H   -0.748085696  -2.272052085   0.284691488
  H   -0.267832411   0.782070563   2.537029530
  H    0.375392290   0.624185977   0.925163477
  H    0.379650558  -1.605904822   3.036416729
  H    1.764636338  -0.601609378   2.625457168
  H    1.111342361  -1.728847073   1.442714734
