25
charge=0 charge_a=0 charge_b=0 selection_a=1-7 selection_b=8-25 scaling=1.00 benchmark_Eint=-2.752 benchmark_unit=kcal/mol group=HBCNO
  N    1.742278348   1.281855684  -1.152191475
  N    0.766777067   0.734371095  -1.309252828
  N   -0.214692160   0.028345875  -1.498719129
  C   -1.523023498   0.685760268  -1.357942944
  H   -2.273879154  -0.072298513  -1.549970556
  H   -1.640880138   1.494618884  -2.080617821
  H   -1.664819364   1.077350414  -0.350054330
  C    1.715299060  -0.895529125   2.123279917
  C    1.362004768   0.411569713   2.835664860
  C   -0.009634408   0.933231518   2.402507380
  C   -1.099645296  -0.125236744   2.586482844
  C   -0.741770689  -1.435316957   1.880509721
  C    0.627943242  -1.952865097   2.324646505
  H    2.676928808  -1.269328712   2.478483796
  H    1.834375840  -0.700153907   1.054137642
  H    2.127575031   1.164755421   2.644393149
  H    1.353263813   0.239481292   3.916350417
  H    0.041359360   1.223576657   1.349894774
  H   -0.263362992   1.837183734   2.958901301
  H   -2.058520455   0.251087145   2.223410322
  H   -1.229824045  -0.318478174   3.655572799
  H   -0.722293252  -1.272222968   0.800083484
  H   -1.510078155  -2.186672287   2.071281759
  H    0.880702581  -2.863440883   1.779197357
  H    0.584185949  -2.224453612   3.383986261
