29
charge=0 charge_a=0 charge_b=0 selection_a=1-9 selection_b=10-29 scaling=1.00 benchmark_Eint=-3.447 benchmark_unit=kcal/mol group=HBCNO
  N   -1.083310553   0.560010598  -1.466877990
  C   -0.468587440   1.715748347  -1.229008609
  N    0.848663868   1.900026921  -1.210140750
  C    1.563435416   0.804710362  -1.453009003
  N    1.064653534  -0.402905400  -1.703953381
  C   -0.264552521  -0.462858848  -1.698189985
  H   -1.093105173   2.577839122  -1.030109884
  H    2.641819628   0.903363397  -1.441266821
  H   -0.718279403  -1.426436076  -1.895570148
  C   -1.330016629  -1.147797898   2.831554342
  C    0.160507493  -0.810124352   2.925780467
  C    0.987184877  -2.051726699   2.579690391
  C    0.535449110   0.397492914   2.041268378
  C   -0.291276145   1.642925855   2.370051470
  C    2.025528652   0.738805430   2.117303290
  H   -1.559681951  -2.038876577   3.415663778
  H   -1.614487665  -1.348540121   1.796171774
  H   -1.962056306  -0.342667788   3.199576059
  H    0.380797257  -0.534286058   3.963368895
  H    0.865422791  -2.314013275   1.526314711
  H    0.662687224  -2.906781447   3.172615912
  H    2.049228212  -1.908122726   2.765751818
  H    0.309291169   0.106283080   1.012063791
  H   -0.174334711   1.917377448   3.420675547
  H   -1.352224571   1.497681400   2.178415272
  H    0.040906498   2.489993668   1.770277378
  H    2.321681991   0.945648260   3.147989555
  H    2.243093097   1.628332630   1.526771190
  H    2.653927580  -0.067376183   1.744798883
