21
charge=0 charge_a=0 charge_b=0 selection_a=1-9 selection_b=10-21 scaling=1.00 benchmark_Eint=-3.875 benchmark_unit=kcal/mol group=HBCNO
  N   -1.030443728   0.065033839  -1.391444764
  C   -0.418012207   1.068361267  -2.011947174
  N    0.776792277   1.003661188  -2.594824538
  C    1.365047532  -0.186159891  -2.512260074
  N    0.862567131  -1.257104863  -1.904923002
  C   -0.336961165  -1.068418470  -1.359805013
  H   -0.936289202   2.018416126  -2.047892499
  H    2.337948954  -0.291199168  -2.977404378
  H   -0.787161356  -1.910257738  -0.848807858
  C    1.652931684   1.160848646   0.838017425
  C    1.328534967  -0.069094939   1.396842412
  C    0.116248398  -0.233657108   2.057477052
  C   -0.771416746   0.830328702   2.157129673
  C   -0.446389063   2.060629249   1.598954085
  C    0.765721957   2.226141836   0.939881706
  H    2.591908786   1.288847282   0.318658452
  H    2.014685003  -0.899417545   1.310187734
  H   -0.137001654  -1.191226343   2.490468620
  H   -1.717001591   0.699904770   2.663766756
  H   -1.138627093   2.887345963   1.673588615
  H    1.018040593   3.181202424   0.501084703
