17
charge=0 charge_a=0 charge_b=0 selection_a=1-9 selection_b=10-17 scaling=1.00 benchmark_Eint=-3.093 benchmark_unit=kcal/mol group=HBCNO
  N   -0.665408000  -1.464047886  -1.346184201
  C   -0.226834074  -0.364936629  -0.736835967
  N    0.944263340  -0.247460618  -0.114421391
  C    1.693820230  -1.344818065  -0.129162004
  N    1.361364612  -2.500666510  -0.699769992
  C    0.170566865  -2.497963975  -1.292746818
  H   -0.867403712   0.507077325  -0.746449444
  H    2.656749050  -1.295842953   0.365066400
  H   -0.145420075  -3.416069486  -1.773329656
  C   -1.325440331   2.974551719   0.410580690
  C   -0.073083020   2.711517067   0.776132388
  C   -0.601684429   1.755737977   1.907180617
  C   -1.855047315   2.016443031   1.544641783
  H   -1.787873946   3.589536170  -0.344505348
  H    0.904315762   3.012284999   0.438240570
  H   -0.132721152   1.140837016   2.656917477
  H   -2.829360636   1.702424386   1.882511262
