22
charge=0 charge_a=0 charge_b=0 selection_a=1-5 selection_b=6-22 scaling=1.00 benchmark_Eint=-2.004 benchmark_unit=kcal/mol group=HBCNO
  N   -1.823739820   0.264017433  -2.133049551
  N   -1.762353015  -0.825908048  -1.839123059
  C   -1.686989760  -2.067508885  -1.497092018
  H   -0.922027144  -2.669469408  -1.952733967
  H   -2.398940042  -2.436320267  -0.781392243
  C    1.254948141   0.195277512  -0.120332937
  C    0.796587520   0.579115756   1.291892414
  C    1.230031402   2.017889605   1.595758628
  C   -0.731058472   0.476617402   1.379726045
  C    1.431480262  -0.373523006   2.311553235
  H    0.815999096   0.857909807  -0.866295880
  H    0.956731167  -0.825955113  -0.360628696
  H    2.340373736   0.258606600  -0.208823261
  H    0.790738176   2.716531541   0.882612383
  H    2.314766539   2.119739542   1.540251784
  H    0.916053459   2.318252159   2.596420590
  H   -1.208747281   1.144119852   0.662409443
  H   -1.083341006   0.744189234   2.376860875
  H   -1.063913094  -0.539971730   1.166796554
  H    2.520392245  -0.321515885   2.270883132
  H    1.137885949  -1.406017813   2.116753390
  H    1.121815763  -0.123058202   3.327177621
