21
charge=0 charge_a=0 charge_b=0 selection_a=1-10 selection_b=11-21 scaling=1.00 benchmark_Eint=-3.558 benchmark_unit=kcal/mol group=HBCNO
  C    1.298792222   0.542032806  -1.667392434
  O    0.284975197   1.255229086  -2.353602769
  O   -0.983855669   0.708490656  -1.907084169
  C   -1.613798008   1.723357938  -1.149302610
  H    2.231906842   0.972937447  -2.028425578
  H    1.267097665  -0.520188438  -1.911847156
  H    1.224999679   0.674282824  -0.587544031
  H   -2.568377463   1.294737642  -0.845082658
  H   -1.786961436   2.613702388  -1.755042044
  H   -1.029574923   1.979521968  -0.263477333
  C   -0.527307746  -1.394885032   0.904269347
  C   -0.362678194  -0.211496024   1.810833546
  C    0.906197050  -0.165911372   2.251565509
  C    1.653811561  -1.291307554   1.686696921
  C    0.836843780  -2.017216821   0.904851012
  H   -0.835614276  -1.093556940  -0.102290327
  H   -1.295167154  -2.086636921   1.265483166
  H   -1.155418667   0.476854293   2.055155916
  H    1.323582909   0.573776149   2.917574011
  H    2.696792078  -1.491363075   1.878868137
  H    1.094369085  -2.905103552   0.350387005
