27
charge=0 charge_a=0 charge_b=0 selection_a=1-9 selection_b=10-27 scaling=1.00 benchmark_Eint=-4.187 benchmark_unit=kcal/mol group=HBCNO
  C   -2.103054645  -1.210197588  -1.566071024
  O   -2.505162311  -1.359041470  -0.222385637
  C   -3.024994908  -0.162634411   0.314016845
  H   -1.693724794  -2.162797682  -1.892219872
  H   -1.332456199  -0.440476620  -1.669251240
  H   -2.952564923  -0.945631790  -2.207341411
  H   -3.285524906  -0.355554483   1.351431568
  H   -3.922711931   0.158024525  -0.228359234
  H   -2.287080822   0.644322477   0.279117384
  C   -0.315560462   0.835218619   2.650169690
  C   -0.241067320   2.088343348   2.005808905
  C    0.259214716   2.182922824   0.734300631
  C    0.713160568   1.032257593   0.046706868
  C    1.237767442   1.093897356  -1.266239176
  C    1.671145199  -0.039077751  -1.902263771
  C    1.596456274  -1.291156597  -1.255922851
  C    1.089372148  -1.384646276   0.012266244
  C    0.638224832  -0.233792909   0.699215370
  C    0.111208579  -0.297114711   2.009991702
  H   -0.717302512   0.773204876   3.651548567
  H   -0.583201348   2.974805572   2.520833848
  H    0.315923805   3.142226688   0.237613002
  H    1.292761641   2.054740715  -1.760138701
  H    2.071185097   0.021518707  -2.904470036
  H    1.936888988  -2.178426362  -1.770563188
  H    1.018907423  -2.344030355   0.505859760
  H    0.044096661  -1.260664804   2.495867369
