17
charge=0 charge_a=0 charge_b=0 selection_a=1-10 selection_b=11-17 scaling=1.00 benchmark_Eint=-3.163 benchmark_unit=kcal/mol group=HBCNO
  C    1.248133526  -1.107456264  -1.727258096
  O    0.485540188  -0.181350518  -2.479321312
  O   -0.871479827  -0.243615674  -1.966130893
  C   -1.131406968   1.010672007  -1.361441680
  H    2.253013629  -1.039539862  -2.142509048
  H    0.869106893  -2.122992663  -1.855838543
  H    1.267118104  -0.846181690  -0.668304820
  H   -2.162774922   0.945111274  -1.016023580
  H   -1.038929897   1.819449868  -2.087158942
  H   -0.473126984   1.185702374  -0.509630309
  C    0.427501948  -0.169909465   2.188209044
  C   -0.374450859  -0.917573590   1.703844116
  C   -1.343464085  -1.819803384   1.104493136
  H    1.134944473   0.488835477   2.624398261
  H   -1.083210517  -2.858644476   1.308231825
  H   -1.377629574  -1.681085471   0.024060342
  H   -2.340984809  -1.638834531   1.505288088
