18
charge=0 charge_a=0 charge_b=0 selection_a=1-12 selection_b=13-18 scaling=1.00 benchmark_Eint=-2.698 benchmark_unit=kcal/mol group=HBCNO
  O    1.388515304  -1.097408548   0.006437362
  C    0.260429065  -1.748409824  -0.528402151
  O   -0.890829923  -0.942833513  -0.429417526
  C   -0.677087558   0.291340769  -1.075764905
  O    0.447290001   0.956316054  -0.546463443
  C    1.587567207   0.135134932  -0.644444352
  H    0.087938865  -2.645241618   0.056097381
  H    0.444774084  -1.997182462  -1.584414821
  H   -1.544715075   0.914014772  -0.891436751
  H   -0.529728317   0.121104843  -2.152462306
  H    2.405445630   0.643911630  -0.146531012
  H    1.822495739  -0.041910548  -1.704871207
  C   -1.718485387   2.033052925   1.975161233
  C   -2.474233612   0.946923785   2.045349433
  H   -2.041368683   2.977115638   2.394240977
  H   -0.748967514   2.014847644   1.495949456
  H   -3.444433444   0.960792329   2.524573936
  H   -2.147677619   0.005028014   1.625646705
