27
charge=0 charge_a=0 charge_b=0 selection_a=1-10 selection_b=11-27 scaling=1.00 benchmark_Eint=-2.775 benchmark_unit=kcal/mol group=HBCNO
  C   -2.386701164  -1.887500920   1.267032393
  C   -1.985215577  -1.279637137  -0.056923668
  O   -1.402591316  -1.919735215  -0.900696514
  C   -2.346195531   0.173060260  -0.266896953
  H   -2.165724332  -2.950367206   1.274161599
  H   -3.447775037  -1.723911104   1.459762940
  H   -1.837329544  -1.397250527   2.072646026
  H   -1.977436918   0.780450941   0.560213554
  H   -3.432231124   0.282225481  -0.281888336
  H   -1.931143201   0.532463860  -1.202945697
  C    2.269691038   2.686441369  -0.804953173
  C    1.442153215   1.453180228  -0.441323978
  C    1.204959600   0.583507788  -1.676989076
  C    2.112127587   0.672261870   0.696587665
  C    1.250854725  -0.434030707   1.300153565
  H    1.791056595   3.265789055  -1.595015590
  H    3.258690552   2.393245188  -1.163437044
  H    2.409141413   3.341164738   0.055986813
  H    0.468675616   1.798879728  -0.075650332
  H    2.156427104   0.219295654  -2.070928445
  H    0.721385826   1.157814545  -2.468220958
  H    0.577869727  -0.280421631  -1.468530932
  H    2.391398959   1.374940429   1.485621325
  H    3.048636803   0.246644663   0.324017782
  H    0.325155355  -0.021278488   1.706110317
  H    1.770391086  -0.934954450   2.116851238
  H    0.983690800  -1.190985801   0.565266808
