21
charge=0 charge_a=0 charge_b=0 selection_a=1-4 selection_b=5-21 scaling=1.00 benchmark_Eint=-1.834 benchmark_unit=kcal/mol group=HBCNO
  C   -2.111746401  -2.450976362  -0.118833393
  O   -1.351661997  -2.457536084  -1.046071279
  H   -2.877174884  -3.236987754   0.013256402
  H   -2.085587148  -1.659465080   0.650480744
  C    1.648520939   1.016216388  -0.762497809
  C    0.639941966   0.985069575   0.391959555
  C   -0.781087087   1.099953575  -0.173115289
  C    0.781639833  -0.338321409   1.153808175
  C    0.910873960   2.156413959   1.342779315
  H    1.474495395   0.190668589  -1.453189839
  H    2.670820359   0.934596766  -0.390579528
  H    1.569995486   1.947881840  -1.324551510
  H   -0.993763435   0.278351405  -0.856893963
  H   -0.909576928   2.035587910  -0.719050026
  H   -1.522095018   1.080287440   0.628435696
  H    0.602475405  -1.186497231   0.493337800
  H    0.070168394  -0.390542470   1.980209448
  H    1.783458188  -0.442341468   1.572722302
  H    0.816583834   3.111443304   0.824055857
  H    1.918098765   2.098743712   1.757790806
  H    0.205404892   2.156603814   2.175148554
