30
charge=0 charge_a=0 charge_b=0 selection_a=1-10 selection_b=11-30 scaling=1.00 benchmark_Eint=-2.709 benchmark_unit=kcal/mol group=HBCNO
  C   -2.129102263  -1.293208864  -1.406086799
  C   -1.193783648  -0.140519201  -1.122466367
  O    0.002111395  -0.297212223  -1.038506142
  C   -1.833885716   1.215537727  -0.936062069
  H   -2.604591500  -1.147842485  -2.377996074
  H   -2.928259461  -1.329009327  -0.664647939
  H   -1.580569189  -2.230031480  -1.407217346
  H   -2.423860038   1.210931790  -0.017532393
  H   -2.519852412   1.436211288  -1.754590081
  H   -1.071488874   1.985262342  -0.867779364
  C    0.714643306  -1.685937642   2.340375821
  C   -0.089149344  -0.541142718   2.994077103
  C    0.363348326   0.819258579   2.447154311
  C   -1.570087238  -0.750139914   2.652152286
  C    0.070505533  -0.560861733   4.519063555
  C    2.226794028  -1.655803996   2.549715235
  H    0.510093672  -1.673056888   1.268097415
  H    0.321702205  -2.633361660   2.720268841
  H    1.385417453   1.049148744   2.745493872
  H    0.322716981   0.836663013   1.358599810
  H   -0.275728584   1.617018982   2.829189047
  H   -1.931210005  -1.703485173   3.040687773
  H   -1.722108414  -0.753869666   1.573207683
  H   -2.187503454   0.041888009   3.078555930
  H   -0.229648121  -1.525364147   4.932033851
  H    1.100896069  -0.373201825   4.817877159
  H   -0.550436732   0.208302618   4.980649439
  H    2.672788097  -0.754749485   2.130969420
  H    2.495144625  -1.704400186   3.604732605
  H    2.693574959  -2.507345043   2.055080227
