18
charge=0 charge_a=0 charge_b=0 selection_a=1-4 selection_b=5-18 scaling=1.00 benchmark_Eint=-1.813 benchmark_unit=kcal/mol group=HBCNO
  C   -2.131333897  -0.040668416   0.606561922
  O   -2.249732478   0.756784525  -0.280395681
  H   -2.192207372  -1.129321313   0.426475379
  H   -1.952597122   0.268851787   1.651835338
  C    1.143581611   1.547818330   1.112826733
  C    1.271608147   0.147773958   0.520399476
  C    1.192906893   0.131683829  -1.003982187
  C    1.264795629  -1.274607854  -1.590929877
  H    1.200204210   1.530786958   2.201410623
  H    0.195254024   2.006190134   0.830325736
  H    1.941466694   2.197322490   0.750353639
  H    0.486691586  -0.498646531   0.927161435
  H    2.214430225  -0.305085041   0.838838576
  H    2.006158454   0.741043979  -1.406871919
  H    0.265698951   0.614097561  -1.319713781
  H    2.191872780  -1.775047702  -1.306597736
  H    1.216296687  -1.256925458  -2.679367093
  H    0.436951028  -1.890142287  -1.234169739
