30
charge=0 charge_a=0 charge_b=0 selection_a=1-12 selection_b=13-30 scaling=1.00 benchmark_Eint=-3.353 benchmark_unit=kcal/mol group=HBCNO
  O    4.089436478  -2.069613476  -0.255701049
  C    3.215465847  -2.955942560  -0.913811091
  O    1.969591185  -2.350135161  -1.169803664
  C    2.147634045  -1.175332543  -1.928107749
  O    3.017479750  -0.276738666  -1.277912295
  C    4.254894812  -0.899220719  -1.020768511
  H    3.043671343  -3.800683283  -0.256105912
  H    3.666879294  -3.282374271  -1.862715553
  H    1.181792787  -0.691970592  -2.019793374
  H    2.557232727  -1.433904142  -2.915466946
  H    4.858806531  -0.208623463  -0.442805114
  H    4.745893598  -1.147844659  -1.973567270
  C    0.206007819   0.720746399   0.452797902
  C   -0.424692400  -0.540549140   0.521527494
  C   -1.781644141  -0.625239600   0.688858248
  C   -2.575161546   0.541329887   0.796692783
  C   -3.978398138   0.488418827   0.970424929
  C   -4.718216669   1.636710775   1.070982800
  C   -4.087942206   2.897245318   1.002176289
  C   -2.731266371   2.982666546   0.834336045
  C   -1.937760843   1.816073012   0.727179746
  C   -0.534518704   1.868841283   0.552929093
  H    1.276275254   0.769434805   0.313593268
  H    0.173369011  -1.435946730   0.433558563
  H   -2.267409933  -1.590619485   0.741128063
  H   -4.459333075  -0.479218577   1.023265465
  H   -5.789447028   1.581874881   1.204001343
  H   -4.682150851   3.796471324   1.083083076
  H   -2.245741191   3.948019235   0.781696323
  H   -0.053660303   2.836637376   0.499889628
