26
charge=0 charge_a=0 charge_b=0 selection_a=1-9 selection_b=10-26 scaling=1.00 benchmark_Eint=-1.953 benchmark_unit=kcal/mol group=HBCNO
  C   -1.472109373  -2.875758118   0.401128132
  O   -1.175629310  -2.555022098  -0.938756243
  C   -2.128489276  -1.688878030  -1.512737776
  H   -0.684495851  -3.532486514   0.761882251
  H   -2.435715997  -3.391407419   0.484783315
  H   -1.503002510  -1.978179353   1.029349935
  H   -1.815912834  -1.492149201  -2.535203447
  H   -2.184282868  -0.739986470  -0.967895566
  H   -3.125714250  -2.143866339  -1.524168818
  C    1.751652652  -0.870260747   0.013335959
  C    0.758779385   0.286272834  -0.040792367
  C    1.305000934   1.583147295   0.549547707
  C    0.312116729   2.741622733   0.500858805
  C    0.867397464   4.033258713   1.094441362
  H    1.326500776  -1.769192610  -0.429075595
  H    2.032615996  -1.096913784   1.043364343
  H    2.666546883  -0.625150876  -0.528583661
  H   -0.153641076   0.007787130   0.492613535
  H    0.458775750   0.459971515  -1.077400916
  H    2.217175850   1.867053535   0.015663805
  H    1.605656449   1.409129857   1.587493423
  H   -0.598684059   2.455881737   1.034206111
  H    0.013508512   2.914310892  -0.536639474
  H    1.143773171   3.896247235   2.141007340
  H    0.139293685   4.842980492   1.046519545
  H    1.760963774   4.357673195   0.559017524
