29
charge=0 charge_a=0 charge_b=0 selection_a=1-12 selection_b=13-29 scaling=1.00 benchmark_Eint=-2.754 benchmark_unit=kcal/mol group=HBCNO
  O    0.740763899   0.308232496  -1.881144402
  C   -0.272371594   1.250494693  -2.143850643
  O   -0.755037434   1.828351543  -0.953678620
  C    0.302847884   2.419790637  -0.236363398
  O    1.320044670   1.485537462   0.038961220
  C    1.788673212   0.910066127  -1.157925203
  H   -1.096829683   0.726102061  -2.613905777
  H    0.119948164   2.038973907  -2.803442186
  H   -0.093908597   2.764541755   0.712008434
  H    0.718798052   3.256917899  -0.816754548
  H    2.497046174   0.132455097  -0.894850034
  H    2.266060101   1.684453677  -1.776880308
  C   -2.306613940  -0.837783535   1.089044668
  C   -1.212467920  -1.851797595   1.445024295
  C   -0.093349487  -1.143440197   2.218136359
  C   -1.809285776  -2.966171394   2.312198929
  C   -0.638387116  -2.455510415   0.157411523
  H   -2.735562854  -0.396207554   1.990300865
  H   -3.116458134  -1.317388537   0.536414512
  H   -1.908771135  -0.030900100   0.474416619
  H   -0.476247673  -0.702973733   3.140436150
  H    0.351501528  -0.347561820   1.621712022
  H    0.697196983  -1.845698071   2.488506568
  H   -2.225117989  -2.562677001   3.236792381
  H   -1.050520972  -3.703128592   2.580071978
  H   -2.609879806  -3.486728653   1.784332570
  H   -0.208246519  -1.683368498  -0.479690578
  H   -1.415284654  -2.969537076  -0.411313890
  H    0.143506751  -3.182560623   0.383929136
