15
charge=0 charge_a=0 charge_b=0 selection_a=1-4 selection_b=5-15 scaling=1.00 benchmark_Eint=-2.581 benchmark_unit=kcal/mol group=HBCNO
  C   -2.041808566   0.320265094  -0.980819337
  O   -3.151847142   0.375807010  -0.528494390
  H   -1.396145903  -0.563829978  -0.849851875
  H   -1.608052660   1.153938677  -1.562989983
  C    1.529346061   0.421063801  -0.440897494
  C    1.426069142  -0.964749010   0.126704466
  C    0.647459317  -0.934896681   1.221136702
  C    0.185315205   0.435907762   1.448553162
  C    0.685987381   1.237899879   0.493108418
  H    1.171273410   0.471052022  -1.475032943
  H    2.565232336   0.774409250  -0.469342391
  H    1.914605334  -1.827554477  -0.296087351
  H    0.389931226  -1.777513577   1.843860156
  H   -0.459984530   0.737359450   2.258899055
  H    0.529124807   2.299728882   0.394091135
