23
charge=0 charge_a=0 charge_b=0 selection_a=1-3 selection_b=4-23 scaling=1.00 benchmark_Eint=-1.828 benchmark_unit=kcal/mol group=HBCNO
  O   -1.264526712   0.270637057  -1.591466624
  C   -2.227124717   0.322506178  -0.948731583
  O   -3.192407108   0.375603682  -0.310368580
  C   -0.295487451   0.756899978   1.974926331
  C    0.091040771  -0.669465319   2.377500658
  C   -0.690313959  -1.671447388   1.522228585
  C    1.615242113  -0.903035960   2.301322259
  C    2.397001651   0.096351505   3.158513014
  C    2.002826304  -2.328890951   2.703118205
  H   -1.378496715   0.879185478   1.987682416
  H    0.057472662   0.980067487   0.965459964
  H    0.123560252   1.504675736   2.644198859
  H   -0.205775478  -0.815984768   3.422284375
  H   -0.363970548  -1.624139028   0.480801754
  H   -1.757337709  -1.450660964   1.551226595
  H   -0.561629311  -2.696263812   1.862630628
  H    1.910545137  -0.754796528   1.256229057
  H    2.080458303   0.038656260   4.202415538
  H    2.264207448   1.123200199   2.825247332
  H    3.464084007  -0.123301216   3.125787371
  H    1.660323004  -2.550050480   3.716555509
  H    3.085917638  -2.450013926   2.688255960
  H    1.580853010  -3.077907035   2.036755608
