29
charge=0 charge_a=0 charge_b=0 selection_a=1-15 selection_b=16-29 scaling=1.00 benchmark_Eint=-2.724 benchmark_unit=kcal/mol group=HBCNO
  C    0.625179073  -1.407931227  -2.088297160
  C   -0.764133780  -1.173188787  -2.687456790
  C    1.367224382  -0.092860290  -2.372358554
  C   -1.079298023   0.273341197  -2.283528275
  C    0.279632588   1.012658563  -2.338683788
  H    0.535502072  -1.559950428  -1.011708046
  H    1.133320899  -2.278273776  -2.502449743
  H   -0.716338404  -1.258807885  -3.776024173
  H   -1.510676538  -1.884687426  -2.336033501
  H    2.168395132   0.092886205  -1.659295409
  H    1.826771604  -0.136731859  -3.360593552
  H   -1.833127991   0.735146769  -2.919572936
  H   -1.465715438   0.287017131  -1.264104739
  H    0.401840389   1.663085596  -1.475270553
  H    0.346907772   1.644432046  -3.223492611
  B    0.777650525   0.407585677   1.506535155
  B    2.236299142  -0.432061220   1.391377292
  B    1.256003021   1.502581903   2.698680694
  B    1.354564138  -0.268744979   2.941296598
  B    2.137897480   1.338924359   1.148705546
  H   -0.244114610   0.272222965   0.940219935
  H    2.563404064  -1.341394302   0.718949897
  H    0.677348121   2.379203919   3.231662625
  H    0.867086007  -1.027819650   3.698632663
  H    2.374766676   2.064961031   0.252636697
  H    2.592086952  -0.699677551   2.657180131
  H    3.183505441   0.513438345   1.303242040
  H    1.851729045   0.760318601   3.643895965
  H    2.443332960   1.973602286   2.290881810
