36
charge=0 charge_a=0 charge_b=0 selection_a=1-20 selection_b=21-36 scaling=1.00 benchmark_Eint=-2.997 benchmark_unit=kcal/mol group=HBCNO
  C   -1.152674545  -1.035098976  -0.909079734
  C   -0.055773187  -1.815712220  -1.664693984
  C    1.339728636  -1.361628723  -1.219461229
  C   -0.220573225  -3.304478731  -1.334310933
  C   -0.198609559  -1.622015476  -3.179357775
  C   -1.208948848   0.470731766  -1.154672915
  H   -1.023425322  -1.224477384   0.160718867
  H   -2.120071980  -1.469968248  -1.172529781
  H    1.511776723  -0.306830602  -1.429739899
  H    1.479426055  -1.522744473  -0.149462210
  H    2.111773733  -1.929255935  -1.739598995
  H   -1.195454898  -3.671664069  -1.657638974
  H   -0.135866434  -3.479170856  -0.260732499
  H    0.544384116  -3.901648514  -1.831703309
  H   -1.198632211  -1.898531594  -3.516909861
  H   -0.017164587  -0.589267819  -3.473821817
  H    0.518343018  -2.246419084  -3.713253116
  H   -0.280377774   0.970152442  -0.882414682
  H   -1.409570915   0.700661581  -2.199741613
  H   -2.008709017   0.923286473  -0.568759011
  B    0.701590110   2.422081924   2.681334803
  B   -0.847088159   1.638087083   2.549559734
  B    0.672744412   0.744423576   2.282864517
  B   -0.686467184   3.275050287   1.759463405
  B    1.915247828   1.628252755   1.464421350
  H    1.050171918   2.808420911   3.739466293
  H   -1.515469650   1.353439533   3.476066738
  H    0.910510596  -0.072654500   3.098068139
  H   -1.232602052   4.102650481   2.405349165
  H    2.983215917   1.289594680   1.850504234
  H   -0.594607077   0.562733018   1.840662919
  H   -1.534075521   2.182632051   1.641757619
  H    1.233648300   0.480057658   1.162624857
  H   -0.629556491   3.437934804   0.579513637
  H    1.832686929   2.181999486   0.419325804
  H    0.733685219   3.299165719   1.792348103
