25
charge=0 charge_a=0 charge_b=0 selection_a=1-17 selection_b=18-25 scaling=1.00 benchmark_Eint=-1.543 benchmark_unit=kcal/mol group=HBCNO
  C    0.801841991   1.612802083  -3.179964089
  C    0.222936423   0.266971749  -2.727927869
  C   -1.017412082   0.511247955  -1.860415964
  C   -0.169530367  -0.561027599  -3.957160501
  C    1.277862026  -0.494172133  -1.916435046
  H    0.071958638   2.176207780  -3.762672046
  H    1.687222595   1.469065879  -3.800614643
  H    1.088955411   2.222827698  -2.322489569
  H   -1.782459942   1.053148247  -2.417646295
  H   -0.770162045   1.100333533  -0.976433916
  H   -1.455337186  -0.430135198  -1.525587736
  H   -0.920011759  -0.041802664  -4.554557672
  H   -0.584622215  -1.525890303  -3.662720336
  H    0.695276196  -0.748825447  -4.594814538
  H    1.583144013   0.074211853  -1.036785609
  H    2.169999459  -0.682637362  -2.514792008
  H    0.894856467  -1.458682899  -1.579647038
  B   -0.743147252  -1.652227924   1.541374203
  H   -0.239789871  -2.721951075   1.470708251
  H   -1.907139581  -1.501673300   1.384379484
  H   -0.098260831  -0.826135950   0.759024254
  B    0.259482918  -0.255817903   1.880392014
  H   -0.244951429   0.813601329   1.946171342
  H    1.424460941  -0.403197905   2.033170145
  H   -0.384391851  -1.084137378   2.667319732
