22
charge=0 charge_a=0 charge_b=0 selection_a=1-6 selection_b=7-22 scaling=1.00 benchmark_Eint=-2.648 benchmark_unit=kcal/mol group=HBCNO
  C   -0.831319220   0.540056153  -1.628929004
  C    0.332701768  -0.090454612  -1.657539328
  H   -0.905593842   1.607792468  -1.785482356
  H   -1.760031828   0.012394433  -1.455770181
  H    1.260487149   0.435817668  -1.836305999
  H    0.407505936  -1.157590513  -1.501164415
  B    0.654486016  -1.168762734   2.749957506
  B    0.416680638   0.474953005   2.226419821
  B   -0.857225298  -0.751415766   2.031894644
  B    2.016593029  -0.294186441   1.807853772
  B   -0.303710627  -2.338508309   1.613530069
  H    0.764323849  -1.385759181   3.903828579
  H    0.231473242   1.375926616   2.961469901
  H   -1.812758011  -0.577926715   2.699597028
  H    2.871441231   0.122434688   2.512365786
  H   -1.011934277  -3.158724699   2.093582392
  H   -0.568818977   0.390349716   1.364783584
  H    1.267084419   0.772810777   1.341294212
  H   -1.121708686  -1.439975631   0.982391544
  H    2.324466000  -0.638831293   0.708179537
  H    0.389446937  -2.644852944   0.701471471
  H    1.594716291  -1.624188755   2.063604152
