23
charge=0 charge_a=0 charge_b=0 selection_a=1-15 selection_b=16-23 scaling=1.00 benchmark_Eint=-4.335 benchmark_unit=kcal/mol group=HBCNO
  C   -0.217184156  -0.101213714  -1.795392168
  C   -1.658931967  -0.482445923  -1.988101797
  C    0.744876420  -1.071116430  -1.509501364
  C    2.070505847  -0.721169226  -1.291479399
  C    2.460179937   0.611466338  -1.354245591
  C    1.513962478   1.586672501  -1.644796119
  C    0.189447852   1.230458299  -1.865006103
  H   -1.751102378  -1.435300722  -2.507527662
  H   -2.195366427   0.271935786  -2.560725507
  H   -2.162526985  -0.584794693  -1.025027211
  H    0.449125048  -2.110185873  -1.452469900
  H    2.798404648  -1.487797724  -1.066458135
  H    3.490159362   0.886732309  -1.179177056
  H    1.806183047   2.625928611  -1.696112288
  H   -0.541299690   1.996842254  -2.085896844
  B   -0.338595426   0.146458067   1.620939576
  H   -0.328682437  -1.030346128   1.754986860
  H   -1.316294746   0.718599315   1.274501009
  H    0.661401799   0.501464142   0.859976013
  B    1.113800852   1.060854632   1.950080006
  H    1.096301073   2.237999766   1.821422907
  H    2.090000980   0.491064482   2.303914300
  H    0.112064543   0.703052377   2.719784038
