31
charge=0 charge_a=0 charge_b=0 selection_a=1-15 selection_b=16-31 scaling=1.00 benchmark_Eint=-3.125 benchmark_unit=kcal/mol group=HBCNO
  C   -1.145289007  -0.981769688  -1.953228884
  C   -2.260750620   0.064695296  -1.881943089
  C    0.105211153  -0.143881022  -2.251168807
  C   -1.614517232   1.232742501  -1.119789201
  C   -0.110036875   1.190362157  -1.495506604
  H   -1.048940630  -1.483656090  -0.986941931
  H   -1.325427786  -1.755524656  -2.698080886
  H   -2.528394251   0.379395984  -2.892898723
  H   -3.168386268  -0.302225740  -1.404735236
  H    1.031161924  -0.641616536  -1.966605543
  H    0.166180520   0.041142540  -3.324174857
  H   -2.075478899   2.189968203  -1.356089786
  H   -1.742007939   1.082764043  -0.046780973
  H    0.516476590   1.245823784  -0.607120227
  H    0.168607078   2.039063476  -2.117313998
  B    1.591728113  -0.392806269   2.684129701
  B   -0.095753773  -0.043948909   2.440982172
  B    0.733261391  -1.317621457   1.507848494
  B    1.027759061   1.387791325   2.564604485
  B    2.363443966  -0.957752420   1.049707593
  H    1.929405627  -0.851495565   3.716563591
  H   -0.943217066  -0.357929793   3.195505812
  H    0.371376224  -2.412734758   1.749033104
  H    0.917870192   1.912595520   3.619449733
  H    3.011811767  -1.949533973   1.031235043
  H   -0.351407699  -0.547160538   1.256409333
  H   -0.245085820   1.150782171   2.062947865
  H    1.229177865  -1.226248295   0.330229096
  H    1.338250731   2.068276270   1.635739099
  H    2.750202955  -0.007765228   0.455640391
  H    2.219478868   0.639255915   2.366023187
