27
charge=0 charge_a=0 charge_b=0 selection_a=1-15 selection_b=16-27 scaling=1.00 benchmark_Eint=-4.076 benchmark_unit=kcal/mol group=HBCNO
  C    2.219820382   1.761243062  -2.509839363
  C    1.709180529   2.103234470  -1.079128306
  C    0.198814021   1.950446094  -1.338932051
  C    0.046626828   0.943697247  -2.193673844
  C    1.452657829   0.406277446  -2.519625217
  C    2.025692053  -0.183917631  -1.217608232
  C    2.177952105   0.822883221  -0.362988041
  H    3.300153741   1.642161898  -2.561953090
  H    1.868270609   2.458028083  -3.268079086
  H    2.025109738   3.041399566  -0.635972815
  H   -0.568703208   2.530189948  -0.852352025
  H   -0.872914982   0.517793531  -2.561064783
  H    1.532441229  -0.218177245  -3.402827259
  H    2.200000994  -1.233542587  -1.044930461
  H    2.504299338   0.778931670   0.663405188
  B   -2.491148147  -1.981496223   2.769002291
  H   -3.188800438  -2.538331622   3.557421068
  N   -1.076830427  -2.168341834   2.764077118
  H   -0.671174672  -2.785823393   3.445537933
  B   -0.213163985  -1.515224739   1.831855752
  H    0.964514558  -1.691422554   1.852779191
  N   -0.819188977  -0.647204442   0.879504634
  H   -0.229058666  -0.175859322   0.212838633
  B   -2.223386727  -0.416039723   0.829358840
  H   -2.705337054   0.315493285   0.022490467
  N   -3.033317293  -1.098570082   1.788341201
  H   -4.027337157  -0.950638065   1.771765287
