14
charge=0 charge_a=0 charge_b=0 selection_a=1-6 selection_b=7-14 scaling=1.00 benchmark_Eint=-2.095 benchmark_unit=kcal/mol group=HBCNO
  C    1.149593679   0.671164585  -2.078172645
  C    0.399091854  -0.033714468  -1.455427262
  C   -0.443462092  -0.813195916  -0.721992139
  C   -1.181025596  -1.484838179  -0.049086842
  H    1.811086921   1.291828249  -2.628428696
  H   -1.831615691  -2.077840254   0.543074754
  B    1.285051499   2.056392938   1.435508966
  H    2.428037221   1.762819627   1.335364025
  H    0.845327711   3.025626230   0.916019210
  H    0.957368881   2.067534817   2.705850091
  B    0.219518159   1.033516642   2.377386117
  H   -0.923046076   1.328105675   2.479290408
  H    0.659771757   0.065359334   2.898403770
  H    0.548462291   1.025952922   1.112169873
