18
charge=0 charge_a=0 charge_b=0 selection_a=1-6 selection_b=7-18 scaling=1.00 benchmark_Eint=-1.824 benchmark_unit=kcal/mol group=HBCNO
  C    1.512866753   2.207120790  -0.687993644
  C    2.509526008   1.891688815   0.124183524
  H    1.619960376   2.969116746  -1.448501228
  H    0.552562883   1.715355168  -0.625376799
  H    3.472414127   2.380808502   0.062006893
  H    2.399345633   1.129130528   0.882668229
  B    0.569942845  -1.328534645   0.479399541
  H    1.574173958  -1.911912061   0.738481343
  N   -0.082759957  -0.505755517   1.445900872
  H    0.320146623  -0.429664397   2.363679570
  B   -1.284209330   0.212193250   1.169858830
  H   -1.807424406   0.890134709   1.995910011
  N   -1.828173537   0.084240950  -0.143484080
  H   -2.673930120   0.581297218  -0.362925770
  B   -1.232005151  -0.727166680  -1.155501882
  H   -1.711644200  -0.817445997  -2.240935675
  N   -0.034003530  -1.418873327  -0.809597900
  H    0.411481509  -1.987095629  -1.508932670
