25
charge=0 charge_a=0 charge_b=0 selection_a=1-11 selection_b=12-25 scaling=1.00 benchmark_Eint=-2.311 benchmark_unit=kcal/mol group=HBCNO
  C   -0.375552106  -1.232521676   2.571193656
  C    0.482423069   0.029149301   2.603019622
  C   -0.349481010   1.307003355   2.540077449
  H    0.235496404  -2.134605605   2.608129433
  H   -0.974162039  -1.271707024   1.661240782
  H   -1.060580544  -1.259156170   3.420233614
  H    1.184096073   0.011878942   1.766570318
  H    1.092841593   0.033920462   3.509112725
  H   -0.941940522   1.339519313   1.625806076
  H    0.279547099   2.197160735   2.562057447
  H   -1.038569573   1.365161940   3.384246709
  B   -0.720041133  -0.028167766  -1.286953591
  B    0.711061422   0.855383396  -1.154633408
  B   -0.280057974  -0.945277254  -2.633969200
  B   -0.263056650   0.845140474  -2.657237424
  B    0.694050885  -0.935044482  -1.131363740
  H   -1.707368153  -0.010509363  -0.647137906
  H    1.046615566   1.689264876  -0.394526033
  H   -0.858749550  -1.774886396  -3.237524181
  H   -0.826065884   1.669587036  -3.282316879
  H    1.013665574  -1.755099878  -0.349628691
  H    0.974010856   1.291564403  -2.396013849
  H    1.696322425  -0.050556145  -1.241767878
  H    0.223887546  -0.066055101  -3.512791860
  H    0.948459928  -1.408085506  -2.360897652
