17
charge=0 charge_a=0 charge_b=0 selection_a=1-8 selection_b=9-17 scaling=1.00 benchmark_Eint=-3.818 benchmark_unit=kcal/mol group=HBCNO
  N   -0.652642193   2.677029166  -1.961635683
  C    0.270458190   2.218720487  -1.096711568
  N   -0.105236484   1.047009327  -0.629582634
  C   -1.295062823   0.829553276  -1.257019328
  N   -1.669456660   1.792589610  -2.076502496
  H   -0.667710320   3.532913738  -2.487550828
  H    1.169995697   2.753369646  -0.845752991
  H   -1.886288190  -0.055671812  -1.100683134
  N    0.517134720  -0.684824709   2.344418005
  C   -0.614096750  -1.118739821   1.798346878
  N   -0.709387668  -1.839220863   0.684477558
  C    0.456148297  -2.110352222   0.104054264
  N    1.649355028  -1.733733758   0.551899588
  C    1.614667504  -1.020011622   1.673086386
  H   -1.537671998  -0.865394000   2.304697695
  H    0.430670283  -2.689284418  -0.811236104
  H    2.563025351  -0.686085363   2.076713076
