18
charge=0 charge_a=0 charge_b=0 selection_a=1-9 selection_b=10-18 scaling=1.00 benchmark_Eint=-4.146 benchmark_unit=kcal/mol group=HBCNO
  N    0.413281816  -2.001500538  -1.182609945
  C    0.971710046  -2.246391713   0.000000007
  N    0.413281830  -2.001500533   1.182609958
  C   -0.798669671  -1.456658837   1.119200374
  N   -1.452908022  -1.157149728  -0.000000001
  C   -0.798669683  -1.456658842  -1.119200379
  H    1.964393825  -2.678850091   0.000000010
  H   -1.291532007  -1.229004404   2.056335100
  H   -1.291532022  -1.229004411  -2.056335126
  N   -0.413281825   2.001500541  -1.182609956
  C   -0.971710041   2.246391711  -0.000000000
  N   -0.413281823   2.001500529   1.182609953
  C    0.798669672   1.456658835   1.119200375
  N    1.452908010   1.157149730   0.000000000
  C    0.798669670   1.456658846  -1.119200375
  H   -1.964393810   2.678850091   0.000000005
  H    1.291532016   1.229004402   2.056335103
  H    1.291532018   1.229004412  -2.056335104
