16
charge=0 charge_a=0 charge_b=0 selection_a=1-7 selection_b=8-16 scaling=1.00 benchmark_Eint=-2.193 benchmark_unit=kcal/mol group=HBCNO
  C    0.601732102  -0.573573100  -2.278302371
  N   -0.432641696   0.209895957  -1.603769760
  H    1.346160208  -1.027319019  -1.614532180
  H    1.127701599   0.063665522  -2.988297811
  H    0.130271716  -1.371483959  -2.850918037
  H   -0.030390628   0.975313147  -1.080762630
  H   -0.956261746  -0.357878001  -0.952124221
  N   -0.529778443  -0.835350654   1.893114219
  C    0.538759062  -1.526272548   1.503181646
  N    1.730243133  -1.009508309   1.216168707
  C    1.801687682   0.312996513   1.338412572
  N    0.805362726   1.108975655   1.719169197
  C   -0.334308100   0.477303838   1.988189654
  H    0.428182726  -2.599802830   1.410053896
  H    2.750295051   0.782028450   1.107044725
  H   -1.174893277   1.082798214   2.304420058
