7
charge=0 charge_a=0 charge_b=0 selection_a=1-2 selection_b=3-7 scaling=1.00 benchmark_Eint=-1.054 benchmark_unit=kcal/mol group=HBCNO
  N   -0.815520145   1.197894572   0.002764702
  N   -1.109218478   1.826131120   0.843341862
  N    1.144892073  -1.541003262   0.697858249
  N    0.990587757  -1.465113660  -0.420154218
  C    0.810275482  -1.372433771  -1.694186408
  H    0.189825880  -0.571398507  -2.052312370
  H    1.288864033  -2.099377286  -2.324830659
