18
charge=0 charge_a=0 charge_b=0 selection_a=1-9 selection_b=10-18 scaling=1.00 benchmark_Eint=-4.124 benchmark_unit=kcal/mol group=HBCNO
  C    0.107573893   1.174305277  -2.261685947
  O   -0.469833332   0.000000003  -1.736148720
  C    0.107573879  -1.174305274  -2.261685963
  H   -0.390818805   2.018473762  -1.792024319
  H   -0.027990716   1.234620871  -3.347220469
  H    1.180241193   1.221511487  -2.041311230
  H   -0.390818822  -2.018473750  -1.792024331
  H    1.180241171  -1.221511486  -2.041311250
  H   -0.027990730  -1.234620877  -3.347220490
  N   -0.636282437  -1.182542611   1.266833665
  C    0.683472545  -1.117747215   1.126637205
  N    1.399882791   0.000000008   1.043530821
  C    0.683472543   1.117747225   1.126637189
  N   -0.636282443   1.182542600   1.266833645
  C   -1.242974248  -0.000000010   1.317452452
  H    1.223080230  -2.055836475   1.073916871
  H    1.223080230   2.055836484   1.073916830
  H   -2.321611852  -0.000000017   1.413214422
