15
charge=0 charge_a=0 charge_b=0 selection_a=1-10 selection_b=11-15 scaling=1.00 benchmark_Eint=-4.452 benchmark_unit=kcal/mol group=HBCNO
  C   -2.158149978  -1.373147088  -1.547258388
  C   -1.047246099  -0.351421487  -1.577646996
  O    0.099922899  -0.664986888  -1.805177186
  C   -1.437592111   1.077379111  -1.283619545
  H   -1.794715944  -2.334787813  -1.896228771
  H   -3.003621891  -1.046382323  -2.153371499
  H   -2.519495556  -1.472954433  -0.521900617
  H   -1.961564748   1.131038762  -0.328527357
  H   -2.128033394   1.437548947  -2.048202290
  H   -0.556630610   1.711263282  -1.258983699
  N   -0.678331356  -0.660475873   1.686745290
  N    0.370469253  -0.362199833   1.378199470
  C    1.554132675  -0.023171101   1.002564058
  H    1.782762856  -0.131046232  -0.043644148
  H    2.235669155   0.336719723   1.752136463
