17
charge=0 charge_a=0 charge_b=0 selection_a=1-12 selection_b=13-17 scaling=1.00 benchmark_Eint=-4.258 benchmark_unit=kcal/mol group=HBCNO
  O    0.338515529  -1.213829465  -1.361805088
  C   -0.828212788  -1.195199638  -2.146746071
  O   -1.593201718  -0.035582223  -1.896102769
  C   -0.811830782   1.115202637  -2.136648206
  O    0.354826890   1.110454432  -1.351443586
  C    1.106099390  -0.055933565  -1.600986809
  H   -1.428925158  -2.053633744  -1.867706096
  H   -0.560360384  -1.231791348  -3.212928152
  H   -1.400422234   1.979647514  -1.850404661
  H   -0.543221867   1.157205702  -3.202457171
  H    1.940186398  -0.064852941  -0.908979076
  H    1.454778143  -0.053722171  -2.644166721
  N    1.009986616  -0.070500639   1.780805264
  N   -0.115597862  -0.064849017   1.670767778
  C   -1.397517927  -0.058379891   1.533894553
  H   -1.995283167  -0.065113010   2.427434038
  H   -1.787936835  -0.046811756   0.531567126
