17
charge=0 charge_a=0 charge_b=0 selection_a=1-9 selection_b=10-17 scaling=1.00 benchmark_Eint=-2.342 benchmark_unit=kcal/mol group=HBCNO
  N   -1.501162179   0.167958959  -2.231790573
  C   -0.692111546   1.219522335  -2.134417783
  N    0.584785137   1.180711609  -1.761961924
  C    1.037057555  -0.034437170  -1.467883312
  N    0.324570534  -1.157390364  -1.521681783
  C   -0.936560582  -0.993110427  -1.912735324
  H   -1.107818919   2.189289236  -2.379350982
  H    2.069620996  -0.117091211  -1.152385470
  H   -1.556461601  -1.879408616  -1.973554493
  B   -0.756262592  -0.472565560   1.777056240
  H   -1.616734515  -1.105560838   2.287900485
  H   -0.997324176   0.359583622   0.969955700
  H    0.145616852  -1.290067085   1.294274840
  B    0.912550241  -0.766769913   2.217554429
  H    1.762116078  -0.127179953   1.695825041
  H    1.166949814  -1.594183425   3.025219848
  H    0.005900983   0.042233387   2.710490782
