19
charge=0 charge_a=0 charge_b=0 selection_a=1-5 selection_b=6-19 scaling=1.00 benchmark_Eint=-2.735 benchmark_unit=kcal/mol group=HBCNO
  N   -0.776568485  -1.614044437  -1.812332054
  N   -0.833047477  -0.490393725  -1.699869005
  C   -0.899329380   0.790178410  -1.558435650
  H   -1.459102824   1.348053921  -2.286920059
  H   -0.373309232   1.225708768  -0.728875767
  B    0.272664797  -0.395421484   1.723231369
  B   -0.826687397   0.712992565   2.362543759
  B   -0.068216460  -1.666897683   2.778135675
  B    0.443062534  -0.054104763   3.366874450
  B   -1.336808194  -0.899968851   1.773675117
  H    1.034352259  -0.310330174   0.829528198
  H   -1.081654920   1.822360663   2.058762582
  H    0.375060849  -2.754622965   2.861894181
  H    1.358109814   0.347578349   3.990290813
  H   -2.064393983  -1.279583841   0.930429432
  H   -0.634120846   0.678066172   3.689171567
  H   -1.977669664   0.040501613   2.486405853
  H   -0.062086714  -1.118903033   4.004107853
  H   -1.405736898  -1.758188785   2.801636405
