17
charge=0 charge_a=0 charge_b=0 selection_a=1-5 selection_b=6-17 scaling=1.00 benchmark_Eint=-2.617 benchmark_unit=kcal/mol group=HBCNO
  N    2.143964407   1.791692900  -1.628054134
  N    1.208876599   1.611794522  -2.234195866
  C    0.122491188   1.397824698  -2.903117247
  H   -0.112726982   0.378811438  -3.153031283
  H   -0.404774399   2.252146582  -3.287584386
  B    0.097400342  -0.988280142   0.003109891
  H    0.669727110  -1.204011099  -1.019884709
  N   -0.785676179   0.121121641   0.139752316
  H   -0.909553875   0.729747685  -0.653376495
  B   -1.481340137   0.409312029   1.350480500
  H   -2.210244983   1.346302154   1.441419863
  N   -1.267138640  -0.475236265   2.450509052
  H   -1.747012416  -0.292307902   3.314603840
  B   -0.398497589  -1.604634653   2.379553647
  H   -0.236910811  -2.324508776   3.313825631
  N    0.268580824  -1.834288288   1.138882670
  H    0.888665688  -2.621882074   1.064890992
