16
charge=0 charge_a=0 charge_b=0 selection_a=1-2 selection_b=3-16 scaling=1.00 benchmark_Eint=-0.995 benchmark_unit=kcal/mol group=HBCNO
  N    0.390066148   0.072781986  -1.588636020
  N   -0.677476350   0.150824113  -1.793383938
  B   -0.516228227  -0.264492737   2.039934322
  B    0.794564341  -1.266298590   1.684656018
  B    0.105734161   0.402939266   3.460033415
  B   -0.080788550  -1.364620573   3.243733554
  B    0.981019945   0.501482330   1.900815600
  H   -1.534023974  -0.088252390   1.475963022
  H    0.986390490  -2.015613303   0.796777692
  H   -0.335728325   1.195592219   4.211226687
  H   -0.694750911  -2.205250209   3.794971380
  H    1.345384296   1.384787035   1.212644433
  H    1.079686345  -1.898135395   2.832509723
  H    1.880444293  -0.490204661   1.816616170
  H    0.558785667  -0.639037205   4.173118131
  H    1.361063600   0.768684756   3.158794704
