25
charge=0 charge_a=0 charge_b=0 selection_a=1-9 selection_b=10-25 scaling=1.00 benchmark_Eint=-3.716 benchmark_unit=kcal/mol group=HBCNO
  N   -1.248079475   0.751589541  -2.047107875
  C   -0.178519361   1.248057461  -2.662341756
  N    1.051599094   0.742842007  -2.600140153
  C    1.164402075  -0.339889321  -1.837608964
  N    0.175302083  -0.914439277  -1.157594019
  C   -1.010490794  -0.326677538  -1.306847384
  H   -0.319737898   2.136539382  -3.265187238
  H    2.147284330  -0.789532663  -1.758476792
  H   -1.849413078  -0.761701874  -0.779254378
  B    0.707241429   1.051488579   2.782726338
  B    1.015537014  -0.632886931   2.460982281
  B    1.958129459   0.652021015   1.666470100
  B   -0.728937559  -0.119797923   2.522443678
  B    1.042258218   2.054417234   1.215333832
  H    0.945908268   1.479019676   3.855303793
  H    1.563678369  -1.355711812   3.211093353
  H    3.088958574   0.704347445   1.994100770
  H   -1.221673295  -0.476980380   3.537205392
  H    1.702314655   3.035395750   1.291103970
  H    1.652667070  -0.618045962   1.312762147
  H   -0.017763450  -1.172240375   1.970634628
  H    1.784601079   1.154980817   0.500986638
  H   -1.442530999  -0.018495592   1.572780152
  H    0.062358045   2.072733656   0.547578121
  H   -0.460961077   1.274664185   2.401443017
