20
charge=0 charge_a=0 charge_b=0 selection_a=1-10 selection_b=11-20 scaling=1.00 benchmark_Eint=-3.524 benchmark_unit=kcal/mol group=HBCNO
  C    1.971400637   0.428885743  -0.755214440
  O    1.208067009   1.604289306  -0.961065513
  O    0.551886837   1.451196056  -2.247297639
  C   -0.834153714   1.331001024  -1.983173267
  H    2.461284728   0.579327696   0.205927848
  H    2.721358651   0.310133148  -1.538328529
  H    1.332196231  -0.452388147  -0.698955381
  H   -1.294556206   1.220681627  -2.964547893
  H   -1.219610734   2.230557832  -1.499319984
  H   -1.049635469   0.455957989  -1.369016545
  C   -0.717403344  -2.554766609   0.717660932
  O   -0.824754936  -1.148977934   0.678597027
  O   -0.069072990  -0.676468589   1.836562860
  C   -0.480916281   0.661686260   2.033269491
  H   -1.263482246  -2.901375198  -0.158246849
  H   -1.170404738  -2.960784907   1.623697902
  H    0.325010674  -2.872785339   0.650026086
  H    0.090771618   0.998500382   2.896679574
  H   -1.548593701   0.714691565   2.253911466
  H   -0.239790050   1.280258693   1.168758938
