30
charge=0 charge_a=0 charge_b=0 selection_a=1-22 selection_b=23-30 scaling=1.00 benchmark_Eint=-3.624 benchmark_unit=kcal/mol group=HBCNO
  C    2.175398918   0.009028255  -3.393953348
  C    1.107571919  -0.798233276  -2.678645130
  C    1.542099108  -2.203900167  -2.315025660
  O    0.726051685  -0.206434010  -1.434147152
  O    0.155658627   1.100140132  -1.698466364
  C   -1.018411775   0.922352723  -2.497052988
  C   -1.460106902   2.329245832  -2.846400649
  C   -2.084128766   0.106824582  -1.787841418
  O   -0.623695534   0.342545790  -3.739142014
  O   -0.068139909  -0.969736395  -3.466735410
  H    3.055722030   0.084715708  -2.759436789
  H    1.822160295   1.006983961  -3.625224724
  H    2.445151104  -0.492676730  -4.320692588
  H    2.409358076  -2.157135766  -1.660908759
  H    1.807865492  -2.745795979  -3.219416902
  H    0.737287772  -2.726200009  -1.804976580
  H   -1.726892221   2.861137634  -1.936327154
  H   -2.328974638   2.284011166  -3.498486164
  H   -0.658555766   2.861137125  -3.351918147
  H   -2.364477376   0.603724659  -0.862098391
  H   -1.728274825  -0.889493239  -1.555135419
  H   -2.959134149   0.025980519  -2.428995623
  B   -0.643266075   0.014292245   1.955305046
  H    0.131342053   0.636999847   2.599786514
  H   -1.738606198   0.417533042   1.749818905
  H   -0.720290315  -1.198324298   2.444154093
  B   -0.173026767  -1.532569062   1.296579072
  H   -0.958935397  -2.148953823   0.659931851
  H    0.917279276  -1.947929693   1.500212001
  H   -0.086012111  -0.317083022   0.821598906
