26
charge=0 charge_a=0 charge_b=0 selection_a=1-10 selection_b=11-26 scaling=1.00 benchmark_Eint=-3.958 benchmark_unit=kcal/mol group=HBCNO
  C   -1.589915607   2.448960226   0.528025929
  C   -1.157489432   1.707237720  -0.714059658
  O   -1.738899209   0.718231561  -1.099301690
  C    0.053617911   2.247185337  -1.435581646
  H   -2.419183160   1.934016176   1.002952364
  H   -1.887564960   3.466627688   0.269165684
  H   -0.754485712   2.528162449   1.224802541
  H    0.932255716   2.118567760  -0.800790566
  H   -0.051364515   3.315868949  -1.625513729
  H    0.205983311   1.712191318  -2.367669219
  B    0.689659690  -0.835979293   0.753406234
  B    0.747503318  -2.266274344   1.739378624
  B    2.064255143  -1.863077916   0.606574484
  B   -0.844273569  -1.884047330   0.915976522
  B    1.553761265  -1.151915964  -0.891737747
  H    0.756502711   0.215838786   1.285565669
  H    0.975129744  -2.259319983   2.894815117
  H    3.086891983  -1.583060710   1.121587588
  H   -1.615216543  -1.457235201   1.705021969
  H    2.370032973  -0.379617852  -1.271382521
  H    1.621524310  -3.034369647   1.126278668
  H   -0.236293526  -3.007867213   1.467713642
  H    2.232292851  -2.305507515  -0.586289285
  H   -1.274380758  -2.493262643  -0.013200979
  H    0.767892795  -1.581909353  -1.666261607
  H   -0.299197003  -0.954989984  -0.002723392
