16
charge=0 charge_a=0 charge_b=0 selection_a=1-4 selection_b=5-16 scaling=1.00 benchmark_Eint=-2.206 benchmark_unit=kcal/mol group=HBCNO
  C   -0.844934802  -0.117256037  -1.228781254
  O    0.142819993   0.447244448  -1.605387407
  H   -1.640206171   0.404431610  -0.667371617
  H   -1.015367221  -1.191874871  -1.419545711
  B    1.439471241   0.740318221   1.646091500
  H    2.225749459   1.630698651   1.597817622
  N    0.093547679   0.957607953   2.074258826
  H   -0.179993194   1.888985832   2.335405807
  B   -0.876623118  -0.082158681   2.138251164
  H   -1.993610069   0.125888280   2.494589854
  N   -0.457226714  -1.387750304   1.736817541
  H   -1.120535486  -2.141729423   1.784027210
  B    0.880900627  -1.680775240   1.325392189
  H    1.202682487  -2.783479631   1.014341682
  N    1.799631922  -0.594818142   1.294062084
  H    2.738879676  -0.769105473   0.981030459
