22
charge=0 charge_a=0 charge_b=0 selection_a=1-8 selection_b=9-22 scaling=1.00 benchmark_Eint=-2.269 benchmark_unit=kcal/mol group=HBCNO
  B   -0.003931683   3.242716515  -0.928068058
  H   -0.939248270   3.912207608  -0.646350422
  H    0.137363841   2.797608745  -2.015989022
  H    0.108078240   2.275841420  -0.052729146
  B    1.204160040   2.900102721   0.291004976
  H    2.137874141   2.230867785   0.002042817
  H    1.073963696   3.338898687   1.383375774
  H    1.090695149   3.875853641  -0.575859568
  B   -0.839274009  -0.513735285   0.095244109
  B    0.642963022  -0.826738849  -0.648272445
  B   -0.824965933  -1.821932546   1.160769362
  B   -0.675681291  -2.037341765  -0.611139217
  B    0.494561243  -0.611993079   1.124062635
  H   -1.629107219   0.342558594  -0.075101432
  H    1.220846690  -0.259830011  -1.502766012
  H   -1.598490003  -2.176158512   1.975189741
  H   -1.312021002  -2.591353990  -1.432852726
  H    0.935705767   0.153510945   1.902582684
  H    0.618361257  -2.131982340  -0.952212622
  H    1.501946702  -1.052310625   0.357317211
  H   -0.490957374  -2.883813910   0.413382485
  H    0.393571300  -1.806220466   1.723245007
