26
charge=0 charge_a=0 charge_b=0 selection_a=1-12 selection_b=13-26 scaling=1.00 benchmark_Eint=-2.458 benchmark_unit=kcal/mol group=HBCNO
  B    1.506841568   0.325243985  -1.737002386
  H    2.685912620   0.463156156  -1.643876484
  N    0.922048183  -0.952592672  -1.972540709
  H    1.526621923  -1.751843594  -2.048191618
  B   -0.486980653  -1.153591753  -2.075999008
  H   -0.947839041  -2.234506363  -2.261817561
  N   -1.317592266   0.000690257  -1.958705973
  H   -2.313610496  -0.118005668  -2.021341301
  B   -0.799959658   1.306564637  -1.722007089
  H   -1.516740489   2.251461008  -1.617417146
  N    0.618019263   1.435231244  -1.615012358
  H    1.007097731   2.347841036  -1.454299691
  B   -0.643929808  -1.194979992   1.690912774
  B    0.831446616  -0.389595281   1.830228997
  B   -1.327790499  -0.635717897   3.129935506
  B    0.236265948  -1.506128042   3.097913248
  B   -0.732301017   0.480659859   1.862441431
  H   -1.062267615  -1.915956533   0.861040496
  H    1.781140606  -0.365930861   1.136131202
  H   -2.377224165  -0.838690992   3.625273659
  H    0.631672335  -2.513551869   3.563303437
  H   -1.234033222   1.312504815   1.198518689
  H    1.244748106  -0.625555875   3.087222025
  H    0.517172988   0.874935569   2.148506081
  H   -0.383758465  -0.815042180   4.066005103
  H   -1.111074346   0.685384815   3.135642994
