16
charge=0 charge_a=0 charge_b=0 selection_a=1-8 selection_b=9-16 scaling=1.00 benchmark_Eint=-1.249 benchmark_unit=kcal/mol group=HBCNO
  B    0.865952298  -1.407048606  -0.157027539
  H    0.158841019  -1.454099862  -1.105733535
  H    0.428441855  -1.455260887   0.942930433
  H    1.648171158  -0.362912734  -0.257955633
  B    2.598106899  -1.258315868  -0.382043485
  H    3.300561958  -1.209915276   0.569772792
  H    3.033905733  -1.209435442  -1.481823359
  H    1.812190154  -2.304099306  -0.280861256
  B   -2.434013419   1.157185157  -0.226836132
  H   -2.305934100   1.102647303  -1.402505617
  H   -3.482363789   0.981639595   0.294882736
  H   -1.926677061   2.285297207   0.209817855
  B   -1.030555376   1.506708110   0.764070396
  H   -1.143202427   1.563182982   1.941152764
  H    0.014164274   1.682795658   0.233648057
  H   -1.542441121   0.380172949   0.338305279
