13
charge=0 charge_a=0 charge_b=0 selection_a=1-11 selection_b=12-13 scaling=1.00 benchmark_Eint=-0.965 benchmark_unit=kcal/mol group=PS
  C   -0.106247716   0.000000001   1.728739337
  C   -0.090722457   1.220394820   1.061953709
  C   -0.057626872   1.330017073  -0.319621398
  P   -0.030481152   0.000000000  -1.431254702
  C   -0.057626871  -1.330017075  -0.319621399
  C   -0.090722454  -1.220394816   1.061953707
  H   -0.129498807  -0.000000000   2.809476785
  H   -0.102622162   2.126226706   1.655609334
  H   -0.045119881   2.323486162  -0.750507319
  H   -0.045119881  -2.323486168  -0.750507322
  H   -0.102622163  -2.126226703   1.655609332
  H    3.447675962  -0.000000000   0.596001461
  H    2.715642474  -0.000000000   0.474003627
