11
charge=0 charge_a=0 charge_b=0 selection_a=1-9 selection_b=10-11 scaling=1.00 benchmark_Eint=-1.023 benchmark_unit=kcal/mol group=PS
  C   -0.332255737   0.548572539   1.083742903
  C   -1.467557623   0.410653485   0.238861875
  C   -1.140942724  -0.039855402  -1.007420950
  S    0.549771509  -0.298898174  -1.159598333
  C    0.830264719   0.199679755   0.459508237
  H   -0.378346323   0.888836211   2.106318470
  H   -2.477885002   0.633780109   0.543854607
  H   -1.796534297  -0.234757583  -1.837741001
  H    1.828643555   0.205743882   0.860025346
  H   -0.718530354  -2.425204927   0.890498900
  H   -0.712329965  -3.158921404   1.002814293
