5
charge=0 charge_a=0 charge_b=0 selection_a=1-3 selection_b=4-5 scaling=1.00 benchmark_Eint=-0.554 benchmark_unit=kcal/mol group=PS
  S    0.030916670   0.015608495  -2.434249629
  C   -1.383990554   0.002044937  -1.797516929
  S   -2.795843021  -0.012071215  -1.153824470
  H    0.289898451  -0.210446045   1.014995297
  H   -0.395736676  -0.220626271   1.297961072
