15
charge=0 charge_a=0 charge_b=0 selection_a=1-4 selection_b=5-15 scaling=1.00 benchmark_Eint=-1.374 benchmark_unit=kcal/mol group=PS
  P    0.377593852   1.541139531   1.079640934
  H    1.566810765   0.883298241   0.680327696
  H    0.891984969   1.889765615   2.353847586
  H   -0.226455910   0.349645256   1.550313648
  C   -1.730424914  -1.341008615  -1.018302933
  C   -0.454613891  -0.881062962  -1.718114032
  C    0.769448455  -1.695557746  -1.308252890
  H   -2.590621008  -0.742858477  -1.318181290
  H   -1.632564161  -1.261823635   0.065455820
  H   -1.950617134  -2.383859437  -1.251789913
  H   -0.281696142   0.175450167  -1.501359949
  H   -0.589144540  -0.946276324  -2.800065904
  H    0.939732389  -1.632984086  -0.232494551
  H    1.671844749  -1.344232344  -1.808574700
  H    0.638919373  -2.749632246  -1.558067475
