26
charge=0 charge_a=0 charge_b=0 selection_a=1-11 selection_b=12-26 scaling=1.00 benchmark_Eint=-4.035 benchmark_unit=kcal/mol group=PS
  C   -1.854091457   1.383367785  -0.915186891
  C   -0.506630040   1.725637734  -0.905543291
  C    0.489537481   0.907490924  -1.412339763
  P    0.238106309  -0.649274014  -2.128569812
  C   -1.486136685  -0.772433476  -2.002231916
  C   -2.319162851   0.182794748  -1.440807404
  H   -2.568862765   2.078447178  -0.496956636
  H   -0.225575705   2.676548781  -0.469919723
  H    1.513380370   1.251403185  -1.344319990
  H   -1.938792836  -1.677309250  -2.388863631
  H   -3.385075048  -0.008770639  -1.410746403
  C    0.212131567   0.260272410   2.096700770
  C   -0.703997942   1.314172225   2.653776019
  C    1.584636737   0.479605404   1.999997088
  C    2.432259743  -0.500320252   1.498083600
  C    1.916857265  -1.719420573   1.079928995
  C    0.548790603  -1.948270811   1.167195162
  C   -0.292723105  -0.966992238   1.670957585
  H   -0.263804403   2.306604728   2.570252110
  H   -0.911579189   1.134663607   3.710593741
  H   -1.658159142   1.320346054   2.129040916
  H    1.993237734   1.430714583   2.315618759
  H    3.493839703  -0.308039276   1.427774290
  H    2.570932985  -2.479310748   0.677416155
  H    0.135574470  -2.887694495   0.828683357
  H   -1.358227793  -1.147359323   1.716942080
