17
charge=0 charge_a=0 charge_b=0 selection_a=1-6 selection_b=7-17 scaling=1.00 benchmark_Eint=-3.178 benchmark_unit=kcal/mol group=PS
  P   -1.687007487   0.166171617   0.028895965
  P   -1.074285294  -0.410754916   2.096841868
  H   -2.766810887  -0.736937389  -0.138295251
  H   -0.750169608  -0.671280358  -0.617944262
  H   -1.750385424  -1.650731387   2.209075586
  H   -2.108584503   0.314883463   2.736988604
  C    2.261052947  -0.726636970   0.026144885
  C    1.951534876   0.724749961   0.240904468
  C    1.638831799   1.287540924  -0.938198283
  C    1.714581112   0.274244816  -1.992730817
  C    2.070770404  -0.903074243  -1.452217529
  H    1.600264817  -1.373963791   0.611314680
  H    3.279654054  -0.978120860   0.339593674
  H    1.974574578   1.207636949   1.203655957
  H    1.364460309   2.318457551  -1.099310570
  H    1.508523143   0.460297937  -3.035572346
  H    2.210657038  -1.837001764  -1.972053869
