26
charge=0 charge_a=0 charge_b=0 selection_a=1-6 selection_b=7-26 scaling=1.00 benchmark_Eint=-2.740 benchmark_unit=kcal/mol group=PS
  P    1.524109802  -0.272975532   1.240280893
  P   -0.402900400  -0.764310213   2.288179425
  H    2.140764049   0.185213595   2.433394222
  H    1.129193307   1.034504363   0.863413703
  H    0.183620276  -1.813520713   3.042022628
  H   -0.865394228  -1.654401144   1.286427999
  C   -3.166271069  -0.262214460  -1.093945176
  C   -2.036284802   0.655604225  -1.569216521
  C   -1.830090716   1.774502980  -0.544292462
  C   -0.734771036  -0.121519907  -1.862679714
  C   -0.947718011  -1.252444016  -2.872425344
  C    0.389602281   0.792450342  -2.355071384
  H   -4.054598964   0.319783668  -0.848891275
  H   -2.870675623  -0.803734536  -0.193059797
  H   -3.451149364  -0.994277394  -1.846170361
  H   -2.351331447   1.117350479  -2.512038964
  H   -1.479782865   1.370493370   0.407751037
  H   -2.769585918   2.291421376  -0.349320001
  H   -1.110433638   2.518377929  -0.878320520
  H   -0.410098802  -0.578442224  -0.921698264
  H   -1.348473914  -0.861146665  -3.810171398
  H   -1.634993275  -2.011727863  -2.506140349
  H   -0.002708387  -1.746222595  -3.097964459
  H    0.092562886   1.306151748  -3.271981465
  H    1.285422559   0.212363914  -2.574998773
  H    0.663150284   1.548708750  -1.623178466
