23
charge=0 charge_a=0 charge_b=0 selection_a=1-11 selection_b=12-23 scaling=1.00 benchmark_Eint=-3.480 benchmark_unit=kcal/mol group=PS
  C    0.335806507  -1.318356269  -2.742808002
  C    0.771676706  -0.181738850  -3.415215389
  C    0.935479328   1.048306800  -2.796281701
  P    0.632364332   1.377924086  -1.120303256
  C    0.121205711  -0.189153297  -0.584706941
  C    0.026021661  -1.315704967  -1.386622804
  H    0.233582347  -2.241234804  -3.296793007
  H    0.992357196  -0.266829265  -4.472369987
  H    1.280002515   1.878464744  -3.400858600
  H   -0.142551684  -0.283447537   0.459324241
  H   -0.306958826  -2.243675763  -0.937466170
  C    0.618848002   0.357332634   3.152323327
  C   -0.372060289  -0.606309679   3.303738747
  C   -1.676903216  -0.328568887   2.912121267
  C   -1.990194277   0.912579583   2.369422631
  C   -0.999166244   1.874827409   2.217318816
  C    0.305227888   1.597323878   2.608687772
  H    1.634463988   0.139689289   3.451035431
  H   -0.127407424  -1.571881859   3.723500699
  H   -2.447073461  -1.078224284   3.027151458
  H   -3.003035520   1.126497450   2.058892923
  H   -1.238451193   2.834207241   1.782055313
  H    1.077173284   2.341564733   2.477032556
