21
charge=0 charge_a=0 charge_b=0 selection_a=1-4 selection_b=5-21 scaling=1.00 benchmark_Eint=-2.458 benchmark_unit=kcal/mol group=PS
  P    1.154456005  -0.695349229   0.971730543
  P   -0.566460120  -2.050920124   0.775568359
  P   -0.889552823   0.106223956   1.060665753
  P   -0.117052346  -1.120266364   2.721004346
  C    0.361626974   1.503369626  -2.374791405
  C    0.187049724   0.439204020  -3.464140530
  C   -0.945247718   0.857463506  -4.409345231
  C    1.492296752   0.301165500  -4.256458921
  C   -0.160262268  -0.905925160  -2.816416962
  H    0.611213901   2.471608088  -2.810742257
  H    1.159804592   1.230581386  -1.683791926
  H   -0.553741557   1.623343203  -1.794250125
  H   -0.724811834   1.814170806  -4.884705039
  H   -1.887096623   0.961048866  -3.868845359
  H   -1.090731645   0.117232607  -5.197232376
  H    1.763705234   1.245132292  -4.730904919
  H    1.396959890  -0.452385776  -5.039367594
  H    2.315277671   0.004977000  -3.604621146
  H   -1.081548624  -0.835691683  -2.237071105
  H    0.633195266  -1.232861427  -2.143760752
  H   -0.298039697  -1.680717077  -3.571689468
