21
charge=0 charge_a=0 charge_b=0 selection_a=1-4 selection_b=5-21 scaling=1.00 benchmark_Eint=-1.936 benchmark_unit=kcal/mol group=PS
  P    0.200279085   0.952532448  -1.676535074
  P   -1.820660056   0.915842968  -1.813970732
  H    0.367089821   1.805881787  -2.804618630
  H   -1.989314984   0.063423965  -0.687361448
  C   -0.528145722  -0.200837331   2.238963043
  C    0.274237860  -1.477902974   1.987482845
  C   -0.313926420  -2.264293367   0.814626249
  C    1.756743981  -1.144828270   1.776590365
  C    2.673534184  -2.360330724   1.666155916
  H   -1.581802030  -0.421286411   2.413387462
  H   -0.466190235   0.470230160   1.380634070
  H   -0.149803221   0.339561466   3.107204751
  H    0.199549035  -2.104181208   2.883116343
  H   -0.205924658  -1.705276027  -0.116642415
  H   -1.376529289  -2.455692882   0.967105163
  H    0.177598786  -3.226592600   0.681143441
  H    2.091624110  -0.520966746   2.608926825
  H    1.851643216  -0.529404852   0.877612465
  H    2.574438142  -3.006533802   2.540191643
  H    3.718003667  -2.057066039   1.596172468
  H    2.448733093  -2.959667234   0.784739328
