10
charge=0 charge_a=0 charge_b=0 selection_a=1-4 selection_b=5-10 scaling=1.00 benchmark_Eint=-2.672 benchmark_unit=kcal/mol group=PS
  P    1.001197700  -0.637800302  -0.460533519
  P    0.352616250   1.456919496  -0.587529772
  P   -1.095684269  -0.109877578  -0.064975653
  P   -0.302650458   0.006521923  -2.117541496
  C    0.487894074  -0.227925791   3.193860949
  C    1.092658356   0.793376514   2.996545569
  C    1.774082075   1.948330912   2.757338245
  C    2.374563214   2.968050837   2.539986593
  H   -0.045124293  -1.128697686   3.365194602
  H    2.903141182   3.866804312   2.344768556
