28
charge=0 charge_a=0 charge_b=0 selection_a=1-11 selection_b=12-28 scaling=1.00 benchmark_Eint=-3.435 benchmark_unit=kcal/mol group=PS
  C   -1.527999273  -1.220789280  -1.957948073
  C   -1.124396317   0.072356353  -2.271870456
  C    0.160662074   0.540566555  -2.049433324
  P    1.457808257  -0.377880627  -1.357147517
  C    0.655746542  -1.891355094  -1.093106117
  C   -0.670833988  -2.159339257  -1.394258142
  H   -2.551379351  -1.506469398  -2.156403811
  H   -1.855467056   0.743861275  -2.704749232
  H    0.381653017   1.565545194  -2.320108580
  H    1.246665027  -2.683764731  -0.650787767
  H   -1.064637927  -3.144685202  -1.177419327
  C    0.514508469   0.774996543   2.840880367
  C   -0.759501560   1.360381650   2.230619663
  C   -0.417514970   2.532884654   1.309731599
  C   -1.554514204   0.263519629   1.511315443
  C   -2.898866449   0.711352739   0.946018812
  H    1.072890914   1.529933585   3.395237565
  H    1.168844758   0.385252756   2.058593127
  H    0.287232681  -0.044541341   3.523629986
  H   -1.383053939   1.742558197   3.046342079
  H    0.182578221   2.191722841   0.464991172
  H    0.157963256   3.289785376   1.843420498
  H   -1.309462715   3.015775878   0.913218296
  H   -1.719412805  -0.557280728   2.213917054
  H   -0.940043503  -0.145076208   0.707911836
  H   -3.524416099   1.158168995   1.721013714
  H   -3.443873825  -0.133096637   0.524575374
  H   -2.777294342   1.446677621   0.151780518
