24
charge=0 charge_a=0 charge_b=0 selection_a=1-4 selection_b=5-24 scaling=1.00 benchmark_Eint=-3.126 benchmark_unit=kcal/mol group=PS
  P    0.771598484  -1.346840333  -0.648485394
  P    1.059054093   0.774888152  -1.147409849
  P   -0.895526926  -0.176658807  -1.480273378
  P    0.818150665  -0.710511043  -2.757485572
  C   -0.641964193   0.367960091   2.550709709
  C   -1.567486095   1.600202892   2.632267944
  C   -1.152902339   2.666039824   1.610594195
  C   -2.995300069   1.138506235   2.314414931
  C   -1.539254037   2.204344271   4.041620325
  C    0.845822228   0.613124052   2.786669306
  H   -0.773818145  -0.087606255   1.566863363
  H   -0.999773721  -0.371247062   3.272226198
  H   -0.158528784   3.059518507   1.817228576
  H   -1.149644548   2.259349767   0.599041996
  H   -1.849320311   3.505130713   1.630465742
  H   -3.327710314   0.377798755   3.022175719
  H   -3.052741765   0.711220639   1.312257007
  H   -3.696623989   1.972310901   2.364175079
  H   -1.816361037   1.461373472   4.791059794
  H   -0.551694559   2.587055137   4.296404732
  H   -2.242945276   3.034138593   4.117550282
  H    1.264563855   1.300586503   2.053112452
  H    1.038293229   1.023538904   3.777289187
  H    1.401237080  -0.320978387   2.706405690
