12
charge=0 charge_a=0 charge_b=0 selection_a=1-6 selection_b=7-12 scaling=1.00 benchmark_Eint=-2.990 benchmark_unit=kcal/mol group=PS
  P   -2.261957766  -0.383631417   1.360985748
  P   -0.452217777  -1.703763185   1.193938244
  H   -3.157810939  -1.485641796   1.353855140
  H   -2.390889626  -0.183015933  -0.035569530
  H   -0.519414678  -2.093714011   2.557910564
  H    0.475035447  -0.667636669   1.465772572
  C   -0.348922896   2.655055359   0.354545376
  C   -0.020553986   1.795975974  -0.421272595
  C    0.330340062   0.796107753  -1.276678441
  C    0.627420063  -0.111405407  -2.008737419
  H   -0.641877976   3.410614503   1.039132492
  H    0.889700321  -0.913778403  -2.651204981
