17
charge=0 charge_a=0 charge_b=0 selection_a=1-6 selection_b=7-17 scaling=1.00 benchmark_Eint=-2.350 benchmark_unit=kcal/mol group=PS
  P    0.472212122  -1.433642003   0.628541269
  P   -0.546348136  -0.775982998  -1.263585192
  H   -0.456431523  -2.481276393   0.858568410
  H   -0.235896625  -0.535318396   1.465058056
  H   -0.200674796  -1.964502456  -1.956807977
  H    0.578178804  -0.077871188  -1.770145157
  C    1.348073597   2.961924956  -1.203187659
  C    1.295084958   2.382473225   0.207708735
  C   -0.093860225   2.481558588   0.832368170
  H    2.343246415   2.870033806  -1.637938344
  H    1.081477442   4.019859814  -1.200488755
  H    0.646613543   2.450325751  -1.863659049
  H    2.017104086   2.901121452   0.841954733
  H    1.615854449   1.338309202   0.185544622
  H   -0.420206511   3.520816427   0.893123757
  H   -0.111785639   2.068246853   1.840572681
  H   -0.833117689   1.942690224   0.237325138
