24
charge=0 charge_a=0 charge_b=0 selection_a=1-6 selection_b=7-24 scaling=1.00 benchmark_Eint=-5.134 benchmark_unit=kcal/mol group=PS
  P   -2.514471870  -0.603449727   0.987028747
  P   -1.116168700  -2.061294835   0.009892427
  H   -3.369574525  -1.594515774   1.537177528
  H   -3.320119795  -0.465802895  -0.172278384
  H   -0.052876274  -1.828322188   0.916632124
  H   -0.632997202  -1.100332948  -0.909687483
  C   -0.203990974   1.951233498  -1.479483632
  C    0.770014154   1.271579000  -2.241500369
  C    1.738362352   0.528065032  -1.620322532
  C    1.774701830   0.418691202  -0.210451333
  C    2.736456942  -0.372640215   0.460216242
  C    2.720869493  -0.487747429   1.824807950
  C    1.744355099   0.190004923   2.585503851
  C    0.804988475   0.970951038   1.966563614
  C    0.790485449   1.106134981   0.559199284
  C   -0.189555747   1.873759611  -0.112098032
  H   -0.963276191   2.533921277  -1.981440406
  H    0.747777639   1.340342250  -3.319808982
  H    2.484400412   0.004160225  -2.202518147
  H    3.481258594  -0.894484265  -0.125410604
  H    3.456390507  -1.101190954   2.325490042
  H    1.740364871   0.087501332   3.661357434
  H    0.048117134   1.482246183   2.544674520
  H   -0.938044426   2.387069078   0.474904906
