25
charge=0 charge_a=0 charge_b=0 selection_a=1-11 selection_b=12-25 scaling=1.00 benchmark_Eint=-3.493 benchmark_unit=kcal/mol group=PS
  C   -2.309117461   1.468489535  -1.359928326
  C   -1.261111640   2.365025664  -1.181052855
  C    0.065785059   2.037039724  -1.412099988
  P    0.638019112   0.492236499  -1.950049965
  C   -0.862888467  -0.364845640  -2.076362732
  C   -2.113145104   0.160317979  -1.789779354
  H   -3.316803957   1.801162266  -1.154034169
  H   -1.497968180   3.365457324  -0.840336601
  H    0.815146123   2.799679937  -1.240454854
  H   -0.807459012  -1.396760906  -2.399842165
  H   -2.982487903  -0.476032839  -1.900688626
  C    0.913728292   1.696363516   2.340294882
  C    0.951736470   0.219257154   1.961572702
  C   -0.434935388  -0.367012775   1.709269036
  C   -0.397991556  -1.841744621   1.322294225
  H    1.914495363   2.093744856   2.510212206
  H    0.334555671   1.853007861   3.251813085
  H    0.449166100   2.286391152   1.549713759
  H    1.447839351  -0.351264579   2.751635755
  H    1.560170513   0.087834501   1.063159199
  H   -0.924454215   0.204975549   0.919619064
  H   -1.048084369  -0.237240415   2.605601291
  H    0.196297065  -1.991031321   0.420332960
  H   -1.397977211  -2.229437688   1.127090204
  H    0.045566761  -2.446403459   2.115008345
