22
charge=0 charge_a=0 charge_b=0 selection_a=1-4 selection_b=5-22 scaling=1.00 benchmark_Eint=-2.962 benchmark_unit=kcal/mol group=PS
  P    0.804470004  -1.090613016  -1.624482072
  P    0.591172287   1.098743793  -1.649908072
  P   -1.169661259  -0.174042838  -1.310117717
  P   -0.229815595  -0.105613911  -3.302249516
  C    0.649605805  -1.236362160   2.236609293
  C    1.367846087   0.107201976   2.096193484
  C    0.390822565   1.279025353   2.210217040
  C   -0.419522496   1.208809723   3.505948495
  C   -1.139782281  -0.134610346   3.639825803
  C   -0.160659880  -1.305619601   3.532446263
  H    1.368779711  -2.055965404   2.193297845
  H   -0.025988255  -1.371533051   1.387314579
  H    1.902389988   0.152215956   1.146131789
  H    2.123457371   0.193224015   2.882940708
  H   -0.296222524   1.256295256   1.359676665
  H    0.928191910   2.226788030   2.148470531
  H   -1.137938224   2.029210035   3.547001146
  H    0.253954133   1.340457795   4.358403271
  H   -1.887690003  -0.220043872   2.845496976
  H   -1.682802530  -0.180513186   4.585251003
  H   -0.696958039  -2.254124679   3.592316052
  H    0.523815892  -1.279441432   4.385910356
