19
charge=0 charge_a=0 charge_b=0 selection_a=1-4 selection_b=5-19 scaling=1.00 benchmark_Eint=-3.245 benchmark_unit=kcal/mol group=PS
  P   -0.429453857  -1.021505537  -2.028267660
  P    0.900008699   0.499448205  -2.898536624
  P   -0.612800471   1.081598009  -1.411584377
  P   -1.236961060   0.471025625  -3.434020751
  C    2.850732474   0.372379764   0.548001031
  C    2.141327189   0.242794333   1.900830746
  C    2.988311241  -1.078268689   0.033565946
  C    1.150047819  -0.900522052   1.666656963
  C    1.943938667  -1.913756107   0.823048250
  H    2.225364160   0.952432873  -0.132139714
  H    3.808631028   0.885839070   0.615758206
  H    2.858726334  -0.041303163   2.674675653
  H    1.663170670   1.167617251   2.221683282
  H    2.821913889  -1.134686767  -1.040707684
  H    3.993347796  -1.457105988   0.214467606
  H    0.762821842  -1.331623685   2.588907353
  H    0.295125219  -0.528591790   1.098987666
  H    1.298264236  -2.494596946   0.166474156
  H    2.449899449  -2.624536132   1.476449140
