24
charge=0 charge_a=0 charge_b=0 selection_a=1-4 selection_b=5-24 scaling=1.00 benchmark_Eint=-1.947 benchmark_unit=kcal/mol group=PS
  P    1.738150796   1.083481706  -1.090226209
  P    0.404410134  -0.291086858  -1.749088734
  H    2.849300885   0.465372411  -1.731447279
  H   -0.710105233   0.322966202  -1.110642249
  C    0.477984361  -1.556232928   1.970366560
  C   -0.512531194  -0.702559604   2.790235572
  C   -0.456025698   0.768443964   2.359483993
  C   -1.925833695  -1.240355931   2.533007277
  C   -0.204462834  -0.807830407   4.289034378
  C    1.949442199  -1.166547689   2.058748248
  H    0.167716497  -1.523603396   0.922172750
  H    0.365639773  -2.598198212   2.281408893
  H    0.519451215   1.211229555   2.554798038
  H   -0.662996912   0.873534126   1.294295556
  H   -1.198664602   1.353712241   2.902945203
  H   -2.007426894  -2.286444040   2.831500351
  H   -2.182296528  -1.173649570   1.474673224
  H   -2.668931177  -0.672575025   3.094246704
  H   -0.220395106  -1.847554119   4.619480523
  H    0.773633287  -0.393195413   4.529608399
  H   -0.945884820  -0.260369967   4.872223125
  H    2.121711051  -0.153294850   1.696844844
  H    2.324868037  -1.223093113   3.079843507
  H    2.556523462  -1.835210057   1.448792892
