17
charge=0 charge_a=0 charge_b=0 selection_a=1-11 selection_b=12-17 scaling=1.00 benchmark_Eint=-2.225 benchmark_unit=kcal/mol group=PS
  C   -0.361135513   1.066913438   0.454849995
  C    0.502512842   0.645115471   1.459854996
  C    1.450876267  -0.349373913   1.277196964
  P    1.719298005  -1.221718367  -0.197067154
  C    0.522620215  -0.484572933  -1.211804401
  C   -0.347527071   0.522714260  -0.824612335
  H   -1.075857409   1.845961250   0.679838533
  H    0.423090304   1.116572732   2.431552104
  H    2.078975483  -0.613287031   2.119018396
  H    0.455463762  -0.850904696  -2.228612813
  H   -1.056594754   0.903704565  -1.549283531
  C   -2.250726735  -2.080999700   1.111547292
  C   -3.285338030  -1.345642555   0.735666591
  H   -1.233525424  -1.758319112   0.942720477
  H   -2.383294162  -3.036272002   1.601903218
  H   -3.149929649  -0.391596753   0.244812248
  H   -4.305098311  -1.666378242   0.901724672
