21
charge=0 charge_a=0 charge_b=0 selection_a=1-6 selection_b=7-21 scaling=1.00 benchmark_Eint=-4.948 benchmark_unit=kcal/mol group=PS
  P   -1.036996277   0.804867617   1.044386064
  P    0.631881138   2.223039853   0.555084456
  H   -0.981925755   1.107589880   2.430120326
  H   -0.205016012  -0.331077591   1.180093354
  H   -0.082748625   3.360610439   1.014607059
  H    0.234149555   2.437332018  -0.788103069
  C   -0.152378513  -0.602325297  -2.033536223
  C   -0.897894318   0.394562437  -2.876339690
  C    1.181503555  -0.396792327  -1.685658679
  C    1.853455013  -1.292428873  -0.862177742
  C    1.201081443  -2.418993860  -0.379721083
  C   -0.125537081  -2.643764139  -0.730692983
  C   -0.793306051  -1.742602779  -1.547288273
  H   -1.526913966   1.031437318  -2.250464587
  H   -1.551467065  -0.101086682  -3.593110647
  H   -0.215508201   1.039935587  -3.426164429
  H    1.699415190   0.475735863  -2.059724488
  H    2.884915482  -1.107285562  -0.598046820
  H    1.720974419  -3.117357143   0.260307074
  H   -0.641332389  -3.519857170  -0.363387094
  H   -1.828504978  -1.919595937  -1.806879059
