24
charge=0 charge_a=0 charge_b=0 selection_a=1-6 selection_b=7-24 scaling=1.00 benchmark_Eint=-2.348 benchmark_unit=kcal/mol group=PS
  P   -0.888652820   1.083874908   2.175578789
  P   -1.891164832  -0.922866200   2.038089548
  H    0.430735392   0.567293506   2.153520493
  H   -0.931082668   1.096482180   3.593629010
  H   -2.370926149  -0.734567025   0.717760412
  H   -3.097633734  -0.449833854   2.615521371
  C    1.563251595   0.442293159  -3.401519106
  C    0.209663502  -0.268667571  -3.335379386
  C    0.139490986  -1.226585882  -2.144170157
  C    0.460827477  -0.507150047  -0.833335269
  C    1.813798832   0.202649815  -0.896946346
  C    1.883185777   1.160152494  -2.088388150
  H    1.578225101   1.149722038  -4.232215297
  H    2.345205230  -0.295513165  -3.605856345
  H    0.019060904  -0.807000697  -4.265208411
  H   -0.583179097   0.479472712  -3.239600494
  H    0.858175004  -2.038119177  -2.292681506
  H   -0.846689508  -1.690562031  -2.088036540
  H    0.441555622  -1.213085892  -0.001092346
  H   -0.319029754   0.235230512  -0.637833379
  H    2.606831370  -0.545488846  -0.989313622
  H    2.001377053   0.742530050   0.032671478
  H    2.868434590   1.626058847  -2.142121010
  H    1.162719642   1.969728062  -1.937478086
