31
charge=0 charge_a=0 charge_b=0 selection_a=1-11 selection_b=12-31 scaling=1.00 benchmark_Eint=-3.082 benchmark_unit=kcal/mol group=PS
  C    0.836972411   1.320357871  -1.701976751
  C    0.908852214   1.767464806  -0.387709681
  C    1.664775467   1.137518125   0.588105624
  P    2.628592687  -0.282598998   0.348477538
  C    2.335064907  -0.573266590  -1.335254665
  C    1.523465725   0.197930758  -2.152125547
  H    0.219228181   1.865489167  -2.401836501
  H    0.339691772   2.648211734  -0.116928661
  H    1.652774768   1.553594154   1.587632963
  H    2.827699334  -1.432514219  -1.773188792
  H    1.412042504  -0.085214033  -3.191635513
  C   -2.445298765  -0.127392389  -0.035487307
  C   -2.856388720   0.097302503   1.435431999
  C   -1.649516343   0.527767968   2.278163997
  C   -3.907594496   1.213847090   1.469870857
  C   -3.466303923  -1.178281490   2.029562976
  C   -1.416205246  -1.224004291  -0.294491182
  H   -2.059236965   0.817167325  -0.426650944
  H   -3.351017646  -0.345863893  -0.607906736
  H   -0.875293707  -0.237492693   2.297859361
  H   -1.204444311   1.440602451   1.881718788
  H   -1.951810277   0.721414473   3.308163116
  H   -4.790843813   0.938277682   0.891900883
  H   -3.508752913   2.138878039   1.050601389
  H   -4.226867572   1.419901368   2.492332105
  H   -4.308802075  -1.525212812   1.429135309
  H   -2.737437555  -1.985640475   2.084567798
  H   -3.830319020  -0.994035050   3.041089217
  H   -0.475202228  -1.025515996   0.214133572
  H   -1.774937075  -2.200617987   0.028394697
  H   -1.195006637  -1.292424584  -1.358673292
