22
charge=0 charge_a=0 charge_b=0 selection_a=1-11 selection_b=12-22 scaling=1.00 benchmark_Eint=-2.919 benchmark_unit=kcal/mol group=PS
  C    0.116807910   1.225668894  -1.506979599
  C    1.058650264   0.350092448  -0.976746082
  C    0.721718792  -0.847181327  -0.364933308
  P   -0.890548436  -1.448981746  -0.158890192
  C   -1.793732424  -0.170923889  -0.902896072
  C   -1.249927059   0.971493066  -1.469096075
  H    0.461185312   2.142414314  -1.964699127
  H    2.104439013   0.623679846  -1.044311665
  H    1.523373862  -1.462556404   0.024116282
  H   -2.870970117  -0.280574674  -0.915432597
  H   -1.917907505   1.706467494  -1.901094639
  C   -0.149229629   0.428975361   3.268029705
  C   -0.752953858   1.519369235   2.387825873
  C   -2.278474020   1.518527571   2.415255608
  H    0.939979737   0.435426014   3.222815818
  H   -0.487493615  -0.557572484   2.948509383
  H   -0.441651401   0.557680591   4.311594002
  H   -0.410286209   1.386303357   1.361866738
  H   -0.382908317   2.495578677   2.710379259
  H   -2.670500779   0.559260379   2.075446809
  H   -2.691095001   2.292613460   1.767922312
  H   -2.654620628   1.691084092   3.425095010
