15
charge=0 charge_a=0 charge_b=0 selection_a=1-9 selection_b=10-15 scaling=1.00 benchmark_Eint=-2.183 benchmark_unit=kcal/mol group=PS
  C    0.558055701   0.318292130   1.367926825
  C    1.482327657  -0.228610339   0.436061404
  C    0.916716701  -1.176093697  -0.367372958
  S   -0.744340290  -1.406471867   0.004723716
  C   -0.687767565  -0.225848082   1.250062376
  H    0.807547233   1.082758475   2.086805556
  H    2.516229442   0.070483143   0.365148303
  H    1.381120294  -1.746666727  -1.152264552
  H   -1.571970299   0.005407611   1.817324004
  C   -0.733936794   2.287319840  -1.537996521
  C   -1.267795468   3.065068792  -0.609114283
  H   -0.786757946   2.541911067  -2.588335558
  H   -0.224676551   1.368859355  -1.283532171
  H   -1.778083909   3.985861670  -0.858661596
  H   -1.213498974   2.806101702   0.439318545
