18
charge=0 charge_a=0 charge_b=0 selection_a=1-9 selection_b=10-18 scaling=1.00 benchmark_Eint=-2.608 benchmark_unit=kcal/mol group=PS
  C   -1.342558526   0.120314812  -1.384357231
  C   -0.029810112   0.662631413  -1.313835748
  C    0.179767193   1.378730697  -0.171379543
  S   -1.217893926   1.396233471   0.826086377
  C   -2.098830719   0.436186464  -0.293068457
  H   -1.704958781  -0.478595369  -2.204997309
  H    0.722420437   0.523260062  -2.074179817
  H    1.073619003   1.890399994   0.138940020
  H   -3.116580776   0.157096667  -0.084651277
  C    0.277792035  -3.416832266   1.373336189
  C    0.392157591  -2.096576624   1.316374700
  C    1.330575367  -1.280609035   2.145924420
  H   -0.421762134  -3.951594986   0.746191652
  H    0.880101906  -4.010474985   2.050019167
  H   -0.231039743  -1.544385757   0.623098506
  H    1.923986485  -1.905029656   2.812758214
  H    0.782762218  -0.552907438   2.747766039
  H    2.009920493  -0.707729067   1.511562389
