22
charge=0 charge_a=0 charge_b=0 selection_a=1-10 selection_b=11-22 scaling=1.00 benchmark_Eint=-4.343 benchmark_unit=kcal/mol group=PS
  C    0.483850704   1.313633859  -0.546690120
  C    1.670705528   0.404493320  -0.609413605
  S    2.754937833   0.287363832   0.596934679
  C    1.777543825  -0.402035217  -1.867525549
  H    0.471293890   1.897795580   0.366535830
  H   -0.430841586   0.719497955  -0.604928121
  H    0.479171782   1.982273342  -1.411351583
  H    1.847063361   0.265230241  -2.730557327
  H    0.866443529  -0.989438329  -2.001805049
  H    2.638336431  -1.061672650  -1.852282383
  C   -1.264699975  -2.221357964  -0.342437171
  C   -2.456851193  -1.504871432  -0.348603326
  C   -2.745596246  -0.629705786   0.692143912
  C   -1.841384261  -0.469571546   1.736444560
  C   -0.648007512  -1.180983463   1.738825330
  C   -0.360199542  -2.058166001   0.700024946
  H   -1.042224780  -2.906111087  -1.148994291
  H   -3.159439394  -1.630581939  -1.160388144
  H   -3.672127493  -0.073043932   0.688816198
  H   -2.063566083   0.214450931   2.543238187
  H    0.064529143  -1.041896960   2.538542815
  H    0.573182553  -2.602208328   0.698791435
