27
charge=0 charge_a=0 charge_b=0 selection_a=1-10 selection_b=11-27 scaling=1.00 benchmark_Eint=-2.876 benchmark_unit=kcal/mol group=PS
  C   -2.229497105   0.594868889  -0.919480878
  C   -1.163117116   0.192466486  -1.891535955
  S    0.088228324   1.159227572  -2.267790912
  C   -1.326990108  -1.177937099  -2.475173800
  H   -2.087549618   1.607967735  -0.560309670
  H   -2.222085813  -0.090889737  -0.068359110
  H   -3.214743059   0.503779050  -1.383104236
  H   -2.285425949  -1.248493277  -2.995759304
  H   -1.356688883  -1.919204811  -1.672286494
  H   -0.523867666  -1.422270527  -3.161723924
  C    0.619663512  -1.469218827   1.014173986
  C    1.300233245  -0.347605812   1.808404319
  C    0.398979468   0.892926860   1.822586164
  C    1.547449397  -0.817986779   3.246093490
  C    2.636271258   0.002980435   1.142864843
  H   -0.351088195  -1.720921593   1.444958263
  H    1.229467727  -2.373672926   1.014516804
  H    0.468631846  -1.170090506  -0.022178601
  H   -0.568400127   0.668081390   2.275012108
  H    0.225707711   1.262678014   0.812420290
  H    0.856528535   1.698289346   2.398665698
  H    0.609639896  -1.075940352   3.740580438
  H    2.031918853  -0.037620749   3.834414153
  H    2.189834518  -1.699517097   3.265090248
  H    2.483193546   0.340530069   0.117386272
  H    3.299648787  -0.862721508   1.117278729
  H    3.145794643   0.799708939   1.686340128
