23
charge=0 charge_a=0 charge_b=0 selection_a=1-9 selection_b=10-23 scaling=1.00 benchmark_Eint=-3.306 benchmark_unit=kcal/mol group=PS
  C    1.229027955   1.006349675  -0.581874539
  C    0.942562846   1.048919374   0.810047700
  C   -0.277622078   1.597507894   1.077122613
  S   -1.085801731   2.066531860  -0.363598266
  C    0.219671473   1.524311728  -1.339964731
  H    2.138930645   0.604333430  -0.998721609
  H    1.609668336   0.683995500   1.575045174
  H   -0.746495658   1.744499173   2.033961496
  H    0.169817116   1.614181667  -2.410761331
  C   -2.934295430  -1.233216302   1.501238721
  C   -1.556587452  -1.885629168   1.439981171
  C   -1.010600533  -1.993879017   0.018587295
  C    0.374020425  -2.630178856  -0.042080785
  H   -3.299304904  -1.159352371   2.525908557
  H   -3.665518309  -1.806754995   0.929366375
  H   -2.905947300  -0.227340299   1.081266827
  H   -1.600891988  -2.882515292   1.887538509
  H   -0.852372490  -1.309593374   2.044967792
  H   -0.972288092  -0.997988953  -0.425319790
  H   -1.709106263  -2.574754465  -0.590316061
  H    1.092160296  -2.050460567   0.538911664
  H    0.744792989  -2.684488846  -1.065658511
  H    0.361521156  -3.643646621   0.362579293
