28
charge=0 charge_a=0 charge_b=0 selection_a=1-10 selection_b=11-28 scaling=1.00 benchmark_Eint=-2.453 benchmark_unit=kcal/mol group=PS
  C    1.977027900   0.214622893  -3.471573180
  S    2.273015943   0.884903772  -1.804413049
  S    0.573077593   0.375003479  -0.782518566
  C   -0.577964900   1.728815369  -1.179541085
  H    2.882502164   0.412132611  -4.044028998
  H    1.137768494   0.712928649  -3.948942857
  H    1.803128349  -0.856284053  -3.423468828
  H   -1.490528819   1.524744836  -0.622466274
  H   -0.804200904   1.747161225  -2.241960840
  H   -0.162870869   2.681664590  -0.864785007
  C   -1.283796018   0.574349167   2.507931100
  C   -0.181749958  -0.308781263   3.095828588
  C   -0.765707318  -1.488686547   3.875511401
  C   -1.735417966  -2.301897304   3.015297115
  C   -2.839668463  -1.417801406   2.431735163
  C   -2.252798310  -0.241157677   1.649128976
  H   -0.840873859   1.380666357   1.921680727
  H   -1.840633637   1.047990295   3.322345984
  H    0.471977760   0.283192567   3.738475812
  H    0.441231258  -0.685460937   2.280432973
  H   -1.298009942  -1.111376541   4.754301015
  H    0.035878158  -2.128490376   4.248367877
  H   -2.171024341  -3.114086608   3.599783736
  H   -1.181286261  -2.768587898   2.195330882
  H   -3.459634523  -1.032661481   3.247166003
  H   -3.497802484  -2.007201813   1.791044628
  H   -3.053833458   0.396567988   1.269282569
  H   -1.718855383  -0.630655852   0.777166380
