26
charge=0 charge_a=0 charge_b=0 selection_a=1-8 selection_b=9-26 scaling=1.00 benchmark_Eint=-3.577 benchmark_unit=kcal/mol group=PS
  C   -1.635207145   1.155743874  -1.258234086
  S   -2.666358783   0.202950563  -0.080269763
  C   -1.657591336  -1.236720396  -0.598345256
  S   -0.716519345  -0.307895806  -1.866285526
  H   -0.990953555   1.876167083  -0.762996931
  H   -2.220030529   1.638293992  -2.034817169
  H   -2.254461939  -2.038823728  -1.020633665
  H   -1.023671889  -1.612668919   0.199250615
  C    3.760343241   0.367974856   0.736781702
  C    3.117433572   1.742500772   0.935291176
  C    1.606699958   1.688976380   0.698113613
  C    0.939209346   0.630108465   1.578245608
  C    1.583403653  -0.743238974   1.377484286
  C    3.094075021  -0.692993182   1.615684959
  H    4.829976427   0.416648813   0.947723764
  H    3.661060060   0.075644893  -0.312869712
  H    3.579294915   2.474955315   0.271017130
  H    3.308592451   2.083424740   1.957483075
  H    1.420016814   1.444130912  -0.351235122
  H    1.161137330   2.668762235   0.881325358
  H   -0.130463304   0.582596972   1.371877499
  H    1.038987922   0.922448191   2.628213217
  H    1.396136307  -1.074255445   0.352123322
  H    1.121309429  -1.478243731   2.039520224
  H    3.539551139  -1.671745177   1.429490241
  H    3.284121525  -0.458222850   2.667539017
