15
charge=0 charge_a=0 charge_b=0 selection_a=1-3 selection_b=4-15 scaling=1.00 benchmark_Eint=-3.027 benchmark_unit=kcal/mol group=PS
  S   -0.162652482   0.228893746  -2.083787295
  C   -1.523584408  -0.167163740  -1.460872945
  S   -2.883988097  -0.565279952  -0.823389200
  C    1.471119566  -1.306270777   0.971094507
  C    0.232367428  -0.965038908   1.499297472
  C   -0.089026719   0.370381411   1.711092220
  C    0.828221849   1.364508935   1.394454227
  C    2.068203689   1.023507774   0.866425910
  C    2.389691302  -0.311835980   0.654852669
  H    1.719122948  -2.344612107   0.802003935
  H   -0.485602888  -1.736891020   1.737100509
  H   -1.056482108   0.635111890   2.113175817
  H    0.576169608   2.403297177   1.554555277
  H    2.780912538   1.797182728   0.617676803
  H    3.352594721  -0.577203754   0.241564324
