16
charge=0 charge_a=0 charge_b=0 selection_a=1-8 selection_b=9-16 scaling=1.00 benchmark_Eint=-4.217 benchmark_unit=kcal/mol group=PS
  C   -0.887321561  -1.025341850  -1.570854687
  S   -0.035970466   0.586124787  -1.629951168
  C   -1.714209265   1.294156385  -1.830141197
  S   -2.548500533  -0.333429336  -1.921063765
  H   -0.823019499  -1.478902746  -0.584756629
  H   -0.542546734  -1.713666174  -2.335580601
  H   -1.819054485   1.874808122  -2.741315024
  H   -2.025571992   1.877278969  -0.968271673
  C    1.072127517  -0.257820415   1.272502058
  C    0.541967045  -1.454408288   1.527727750
  C   -0.848417171  -0.779572995   1.807831229
  C   -0.318164361   0.416439226   1.552174127
  H    2.049273579   0.106681110   1.003404868
  H    0.914448049  -2.465967723   1.544084138
  H   -1.826841096  -1.137039401   2.084229632
  H   -0.679290917   1.431104914   1.555551969
