20
charge=0 charge_a=0 charge_b=0 selection_a=1-9 selection_b=10-20 scaling=1.00 benchmark_Eint=-2.665 benchmark_unit=kcal/mol group=PS
  C   -0.335274867   1.542380742  -0.162889623
  C   -1.611340534   0.960420928  -0.397433562
  C   -1.558346693  -0.077951238  -1.281445630
  S    0.044446561  -0.353339742  -1.832609109
  C    0.656685286   0.932830869  -0.874444922
  H   -0.163457507   2.371940713   0.504836608
  H   -2.523406664   1.296225562   0.070455632
  H   -2.366569436  -0.694125473  -1.633967330
  H    1.707413663   1.162724746  -0.882196246
  C    0.284438219  -1.989873398   1.620283956
  C    1.770342382  -1.644819138   1.584029077
  C    2.107307333  -0.414974644   2.422771363
  H    0.062486243  -2.866578538   1.012068143
  H   -0.315933739  -1.163152520   1.241631021
  H   -0.042642121  -2.199365680   2.640365883
  H    2.073447287  -1.473133293   0.549423317
  H    2.354853667  -2.497902600   1.936500539
  H    1.553810872   0.455539973   2.069719147
  H    3.170630664  -0.177274202   2.380595003
  H    1.843214070  -0.571480289   3.470034586
