30
charge=0 charge_a=0 charge_b=0 selection_a=1-10 selection_b=11-30 scaling=1.00 benchmark_Eint=-2.657 benchmark_unit=kcal/mol group=PS
  C   -1.658464881   2.223868666  -0.817232127
  C   -1.404232253   1.701986806   0.564383828
  S   -2.367705924   0.603979287   1.274689795
  C   -0.189931867   2.265450425   1.238778178
  H   -2.551077365   1.788885071  -1.253144792
  H   -0.800807581   2.006762912  -1.458737437
  H   -1.758295821   3.312043291  -0.791986876
  H   -0.269749722   3.353734368   1.301374518
  H    0.699283122   2.056000098   0.638902279
  H   -0.055899842   1.855493200   2.233769488
  C    2.880765035  -1.504055604  -0.398665885
  C    1.370660554  -1.795653902  -0.267791460
  C    0.563855000  -0.898218246  -1.213921578
  C    1.132463324  -3.260833879  -0.653688078
  C    0.899947242  -1.580501487   1.175586738
  C    3.330215516  -0.084717034  -0.057328717
  H    3.184306485  -1.735306554  -1.423198441
  H    3.417331830  -2.208572138   0.242129395
  H    0.692233144   0.154862731  -0.970766833
  H    0.875398788  -1.042858979  -2.249619454
  H   -0.500513471  -1.121510124  -1.145213954
  H    1.685693422  -3.932844975   0.003827684
  H    1.454496578  -3.453839249  -1.678061142
  H    0.074769104  -3.516117594  -0.580431173
  H    1.474107241  -2.198880536   1.867320890
  H    1.003582757  -0.543027900   1.487456121
  H   -0.152008664  -1.842736749   1.282407569
  H    2.870650928   0.654728661  -0.712748286
  H    3.086087858   0.181504387   0.970429514
  H    4.409953171   0.010510000  -0.170258738
