18
charge=0 charge_a=0 charge_b=0 selection_a=1-10 selection_b=11-18 scaling=1.00 benchmark_Eint=-2.160 benchmark_unit=kcal/mol group=PS
  C    0.990864838   1.262363540  -3.682340095
  S    1.047990037   0.398420582  -2.080430499
  S   -0.137962718  -1.242041832  -2.387623819
  C   -1.812170487  -0.621958120  -2.032748599
  H    1.654505242   2.121034423  -3.587899583
  H   -0.014503696   1.611146111  -3.901636293
  H    1.347126280   0.612622861  -4.476184882
  H   -2.480509639  -1.475635622  -2.138852841
  H   -2.101448524   0.147546838  -2.743039779
  H   -1.866329942  -0.241819803  -1.017262280
  C   -0.018446786  -0.771606311   1.412821199
  C    1.415601098  -1.287116314   1.339565641
  H   -0.718036464  -1.500651442   1.004076009
  H   -0.132291739   0.149914870   0.842257704
  H   -0.316527354  -0.564650483   2.441031308
  H    1.701198263  -1.503335342   0.311108738
  H    1.537060660  -2.204069639   1.916734646
  H    2.120474881  -0.554035369   1.732007463
