26
charge=0 charge_a=0 charge_b=0 selection_a=1-6 selection_b=7-26 scaling=1.00 benchmark_Eint=-4.157 benchmark_unit=kcal/mol group=PS
  S   -0.206439921   2.055912043   1.108757083
  S   -0.800269751   0.890888453  -0.503345752
  S   -0.447174267  -1.043322120   0.161517401
  S   -1.960290050  -1.343030844   1.549986867
  S   -1.367073313  -0.172848883   3.157311134
  S   -1.736851507   1.753263889   2.478339084
  C   -3.233709371  -2.220855873  -3.227833113
  C   -3.641084865  -0.927308695  -2.529672094
  C   -4.429185831  -1.164281640  -1.244553044
  C   -4.765289527   0.117459944  -0.489453252
  C   -5.536252487  -0.120525980   0.805515571
  C   -5.805984234   1.166503393   1.579327372
  H   -2.681166199  -2.025026963  -4.146723641
  H   -4.108022409  -2.820034089  -3.486750248
  H   -2.598361854  -2.827729850  -2.580910091
  H   -4.235666271  -0.310996922  -3.209014149
  H   -2.747904691  -0.342271307  -2.297705443
  H   -3.853332141  -1.824904935  -0.589876393
  H   -5.350669179  -1.705691973  -1.479400115
  H   -5.344087352   0.781603420  -1.138678697
  H   -3.839640552   0.649321751  -0.258699998
  H   -4.969011502  -0.810513137   1.435074241
  H   -6.480805600  -0.622545014   0.579840240
  H   -4.870602495   1.660750081   1.844931602
  H   -6.356065981   0.974436683   2.500570812
  H   -6.391008080   1.868285963   0.982809691
