29
charge=0 charge_a=0 charge_b=0 selection_a=1-9 selection_b=10-29 scaling=1.00 benchmark_Eint=-3.243 benchmark_unit=kcal/mol group=PS
  C    2.101165682   0.791378003   0.629947099
  C    1.949598469  -0.285206289  -0.286504264
  C    1.248397355  -1.328658083   0.242864575
  S    0.766836369  -1.007453801   1.859655900
  C    1.510614233   0.540865555   1.834274247
  H    2.620197759   1.709226547   0.402734107
  H    2.338825858  -0.281283851  -1.292476720
  H    0.980959425  -2.257564573  -0.228579861
  H    1.469153543   1.176776231   2.700914992
  C   -2.372568787  -1.044430712  -0.820038098
  C   -2.773831603   0.423290404  -0.560020875
  C   -3.803256897   0.893525040  -1.594822724
  C   -3.400234894   0.498686362   0.838233387
  C   -1.546654097   1.342009133  -0.601833859
  C   -1.658536612  -1.330312741  -2.138600743
  H   -3.276921886  -1.656321360  -0.763172026
  H   -1.733555255  -1.367752361   0.003725232
  H   -3.390712315   0.892673788  -2.603170897
  H   -4.684729718   0.250292096  -1.590863583
  H   -4.130855660   1.910531972  -1.375349470
  H   -2.685397395   0.186564878   1.600562085
  H   -4.274931595  -0.149437775   0.911794871
  H   -3.716857700   1.516441946   1.070241219
  H   -0.785481252   1.016182983   0.105270679
  H   -1.094246935   1.366099596  -1.592320150
  H   -1.828736041   2.363993880  -0.344764207
  H   -2.262923620  -1.047454989  -2.999891181
  H   -0.710638696  -0.798610470  -2.204104685
  H   -1.442341373  -2.395109451  -2.230611952
