27
charge=0 charge_a=0 charge_b=0 selection_a=1-12 selection_b=13-27 scaling=1.00 benchmark_Eint=-3.806 benchmark_unit=kcal/mol group=PS
  S    0.914292201   1.541663181   0.925852815
  C   -0.552423840   1.376870618   1.980164858
  S   -1.668146240  -0.000000743   1.592630645
  C   -0.552423285  -1.376871253   1.980166030
  S    0.914293479  -1.541663877   0.925854825
  C    1.756887058   0.000000272   1.378295128
  H   -1.130345601   2.286573308   1.843878577
  H   -0.247637589   1.316839955   3.024434885
  H   -1.130344394  -2.286574266   1.843879702
  H   -0.247637361  -1.316840199   3.024436148
  H    2.701938034   0.000000163   0.842577969
  H    1.968127414   0.000001036   2.447023170
  C   -1.206693009  -0.775809425  -2.360888381
  C   -1.206692380   0.775809988  -2.360887951
  C    0.145482923  -1.201891273  -2.967268379
  C    0.145483508   1.201891319  -2.967268291
  C    1.064545426  -0.000000175  -2.728382607
  H   -1.288388229  -1.139740198  -1.338181425
  H   -2.046727970  -1.188347663  -2.917964477
  H   -2.046727216   1.188349048  -2.917963739
  H   -1.288387187   1.139740578  -1.338180997
  H    0.527787275  -2.121472057  -2.525889491
  H    0.041789798  -1.373242567  -4.040960928
  H    0.041790219   1.373242553  -4.040960842
  H    0.527788322   2.121471985  -2.525889454
  H    1.400445230  -0.000000087  -1.690768114
  H    1.947405851  -0.000000221  -3.367587297
