28
charge=0 charge_a=0 charge_b=0 selection_a=1-8 selection_b=9-28 scaling=1.00 benchmark_Eint=-2.326 benchmark_unit=kcal/mol group=PS
  C   -1.920365648   0.193386478  -2.729383568
  S   -0.728956330  -0.102974178  -1.366999445
  C   -1.533897408   1.329294400  -0.554371668
  S   -2.726501620   1.622843070  -1.915147099
  H   -2.598732958  -0.640422065  -2.882514219
  H   -1.433248667   0.460916090  -3.662144053
  H   -0.854379806   2.161886901  -0.402685270
  H   -2.017544258   1.064005358   0.380291661
  C    2.119744167  -1.572298639   0.803691608
  C    2.047317165  -0.656876407   2.044299561
  C    3.361885423   0.110059692   2.233086412
  C    0.913406396   0.351534675   1.820840179
  C    1.742779665  -1.473195803   3.306366047
  C    3.196153709  -2.654970342   0.819918504
  H    2.264354854  -0.939986467  -0.075627273
  H    1.142539471  -2.043550946   0.673519051
  H    4.192760641  -0.560638821   2.447686883
  H    3.612683395   0.681221204   1.337889841
  H    3.281725822   0.810612988   3.065276910
  H   -0.039654919  -0.161338374   1.684786451
  H    1.103034477   0.956120180   0.932906933
  H    0.813399773   1.026688592   2.671699811
  H    0.821118046  -2.045132495   3.188407752
  H    2.545121392  -2.172529666   3.537525631
  H    1.620926445  -0.816342599   4.168599159
  H    4.197449549  -2.231949436   0.893149537
  H    3.065224679  -3.346738113   1.651339368
  H    3.157363158  -3.240296208  -0.098588873
