13
charge=0 charge_a=0 charge_b=0 selection_a=1-6 selection_b=7-13 scaling=1.00 benchmark_Eint=-2.683 benchmark_unit=kcal/mol group=PS
  S    0.045622569  -1.596650720   0.272504714
  S   -1.321650829  -0.106283510   0.730300826
  S   -0.275826140   1.621249648   0.258655271
  S   -0.315500249   1.616051023  -1.818598780
  S    1.038895518   0.115447663  -2.295051478
  S    0.006059774  -1.618356063  -1.804581783
  C    1.787164563   0.227370715   2.913552403
  C    0.847520492   0.075929955   3.641182403
  C   -0.306966193  -0.109702491   4.502811470
  H    2.611596244   0.360040161   2.260405726
  H   -1.214862242  -0.205993328   3.906412642
  H   -0.432652073   0.737666820   5.176920481
  H   -0.202151279  -1.009632386   5.108954311
