28
charge=0 charge_a=0 charge_b=0 selection_a=1-10 selection_b=11-28 scaling=1.00 benchmark_Eint=-6.353 benchmark_unit=kcal/mol group=PS
  C    0.271203515   0.068799136  -2.064825991
  C   -0.846140540  -0.893594269  -1.808930918
  S   -0.727228510  -2.482285141  -2.138177037
  C   -2.078551341  -0.282339968  -1.219274017
  H    1.137463605  -0.423320612  -2.492228381
  H    0.558297186   0.555473611  -1.130437747
  H   -0.069616239   0.860535060  -2.737174321
  H   -2.455260418   0.501590283  -1.881575677
  H   -1.831923991   0.201732752  -0.272089449
  H   -2.854559335  -1.020618573  -1.051987223
  C   -1.903069772  -1.469159648   2.243696902
  C   -1.961279995  -0.119208141   2.650439740
  C   -0.888662546   0.709730131   2.452629668
  C    0.295276151   0.229311623   1.843679380
  C    1.421946581   1.057125793   1.623057919
  C    2.552183523   0.559359105   1.030116484
  C    2.608224239  -0.790964929   0.624279439
  C    1.533894742  -1.616488790   0.820153644
  C    0.354021535  -1.136428733   1.435371277
  C   -0.773693257  -1.963387434   1.648488883
  H   -2.759171417  -2.110428343   2.396971436
  H   -2.859485395   0.259428144   3.117258840
  H   -0.931585270   1.745233214   2.762575008
  H    1.376411934   2.092263506   1.933852472
  H    3.406249430   1.201458642   0.867811193
  H    3.502124643  -1.169123010   0.149349202
  H    1.566697226  -2.646179385   0.493485478
  H   -0.732735760  -2.991821156   1.318804508
