13
charge=0 charge_a=0 charge_b=0 selection_a=1-9 selection_b=10-13 scaling=1.00 benchmark_Eint=-2.645 benchmark_unit=kcal/mol group=PS
  C   -0.245456593   1.624100143   0.668875852
  C   -1.248424585   0.641847306   0.897174562
  C   -1.455351744  -0.156686968  -0.190571141
  S   -0.433058054   0.281860907  -1.498396338
  C    0.285360110   1.547760331  -0.587396315
  H    0.066762025   2.350659568   1.402489186
  H   -1.785206286   0.531267666   1.826106344
  H   -2.142416189  -0.978158499  -0.291551591
  H    1.054010382   2.161357587  -1.023177109
  C    1.839043409  -1.454575980   1.067575047
  C    2.522197876  -2.414870992   1.271709040
  H    1.232764142  -0.599975537   0.889174292
  H    3.127825851  -3.267387653   1.451379123
