21
charge=0 charge_a=0 charge_b=0 selection_a=1-3 selection_b=4-21 scaling=1.00 benchmark_Eint=-2.678 benchmark_unit=kcal/mol group=PS
  S   -0.056913124   0.829191419  -1.576810261
  C   -1.111529965  -0.308678823  -1.553330903
  S   -2.162405120  -1.448581271  -1.511220406
  C    0.751964920   0.560057210   2.508200131
  C   -0.670907595   0.704070773   3.052155894
  C   -1.652841846  -0.189583190   2.291542766
  C   -1.197677680  -1.650515772   2.292303223
  C    0.228535637  -1.797244082   1.757555226
  C    1.207869278  -0.900561841   2.518110621
  H    1.442384413   1.175588437   3.087430344
  H    0.781654851   0.936772623   1.481801504
  H   -0.991731663   1.745927323   3.001036605
  H   -0.678896602   0.426534431   4.110767915
  H   -1.729968575   0.162231220   1.259775528
  H   -2.651875405  -0.106324059   2.722856597
  H   -1.885017187  -2.259253474   1.702768231
  H   -1.237049136  -2.036387371   3.315637203
  H    0.245148760  -1.526239777   0.699094741
  H    0.547087388  -2.839429307   1.815781137
  H    2.208323392  -0.987305976   2.090807075
  H    1.279953969  -1.245590570   3.554203634
