28
charge=0 charge_a=0 charge_b=0 selection_a=1-10 selection_b=11-28 scaling=1.00 benchmark_Eint=-5.026 benchmark_unit=kcal/mol group=PS
  C    1.304556032   1.376596451  -3.833779299
  S    1.687255748   0.614602395  -2.223963645
  S    0.647580607  -1.146284587  -2.273455774
  C   -1.018510961  -0.664522440  -1.724957979
  H    1.881408505   2.299677689  -3.880270164
  H    0.246877473   1.613449849  -3.910980643
  H    1.603537177   0.719627397  -4.645320489
  H   -1.579096672  -1.591349227  -1.613066396
  H   -1.507905212  -0.035799828  -2.463987731
  H   -0.966331263  -0.159403631  -0.766724497
  C   -1.708494031  -0.597657190   2.092814853
  C   -1.050601211   0.646599661   1.993812666
  C    0.270929846   0.702428898   1.636363507
  C    1.000091630  -0.478776920   1.364840419
  C    2.363907718  -0.453883560   0.992332189
  C    3.037808451  -1.614386206   0.723162260
  C    2.379104010  -2.857611515   0.814451403
  C    1.059419106  -2.916209824   1.173726624
  C    0.333886127  -1.736300898   1.459385436
  C   -1.031484598  -1.759155066   1.829311490
  H   -2.751278208  -0.629687444   2.375157801
  H   -1.595856674   1.557010771   2.198603758
  H    0.776008228   1.654731664   1.550650387
  H    2.863287383   0.501433715   0.911513032
  H    4.076908975  -1.580894530   0.428820157
  H    2.920929688  -3.765909906   0.592447964
  H    0.551390948  -3.868858671   1.241171530
  H   -1.534590533  -2.714230790   1.901025644
