10
charge=0 charge_a=0 charge_b=0 selection_a=1-3 selection_b=4-10 scaling=1.00 benchmark_Eint=-2.033 benchmark_unit=kcal/mol group=PS
  S    0.019695183   1.320030593  -1.831301774
  C   -0.655161594  -0.068913819  -1.683696246
  S   -1.325501519  -1.459060841  -1.526674898
  C   -0.404915117   0.189129753   2.192595096
  C    0.550602787  -0.271027303   1.635699502
  C    1.703523908  -0.828522978   0.949691312
  H   -1.251006707   0.596916069   2.684727934
  H    2.201984951  -0.067740554   0.349278764
  H    1.402228558  -1.636736669   0.283230580
  H    2.426725652  -1.227424232   1.660930658
