30
charge=0 charge_a=0 charge_b=0 selection_a=1-12 selection_b=13-30 scaling=1.00 benchmark_Eint=-3.549 benchmark_unit=kcal/mol group=PS
  S    0.761336293  -1.652500404  -1.773640416
  C   -0.868845968  -1.316636708  -2.495224416
  S   -1.815833791   0.037863425  -1.747243797
  C   -0.720247906   1.417108631  -2.181122273
  S    0.926936334   1.404838238  -1.421210371
  C    1.584000339  -0.094015360  -2.203949432
  H   -1.458213063  -2.217531403  -2.349584134
  H   -0.765921912  -1.142914479  -3.565804065
  H   -1.211903689   2.319642214  -1.829175665
  H   -0.622496021   1.479486621  -3.264406414
  H    2.612225850  -0.188719044  -1.866376132
  H    1.588022883   0.030615725  -3.286259884
  C   -1.068910916  -1.697864995   1.864531299
  C    0.354743688  -1.842292354   2.406021946
  C    1.179027919  -0.579589170   2.147072446
  C    0.490561374   0.666447094   2.707675629
  C   -0.933008045   0.806577223   2.164838236
  C   -1.760701442  -0.453619526   2.424866518
  H   -1.653173790  -2.591248033   2.094273805
  H   -1.024598216  -1.615197110   0.776725302
  H    0.842032847  -2.707212601   1.952245325
  H    0.314592132  -2.033497696   3.483269543
  H    1.305485049  -0.456838645   1.069442801
  H    2.177426813  -0.685273454   2.576372620
  H    1.073134507   1.557211548   2.465605668
  H    0.456503904   0.600486453   3.799980002
  H   -0.883171619   0.978394435   1.087671583
  H   -1.421788347   1.677726558   2.605811684
  H   -2.753748198  -0.346976824   1.984494767
  H   -1.906470769  -0.574933319   3.503143153
