23
charge=0 charge_a=0 charge_b=0 selection_a=1-12 selection_b=13-23 scaling=1.00 benchmark_Eint=-2.829 benchmark_unit=kcal/mol group=PS
  S    1.434408416   0.372826930   0.396786203
  C    1.237078354  -0.851239585  -0.926942291
  S   -0.443858968  -1.474371247  -1.204423770
  C   -1.231327108   0.068042413  -1.744493840
  S   -1.322337221   1.399304962  -0.516115474
  C    0.452999189   1.718247202  -0.322679500
  H    1.837187701  -1.710370084  -0.640841784
  H    1.635221893  -0.448945826  -1.857869231
  H   -2.256977834  -0.185603512  -1.997080821
  H   -0.736874159   0.434650585  -2.643427965
  H    0.540382360   2.559360512   0.359242585
  H    0.879012143   2.008808656  -1.282458676
  C   -0.578843242  -2.069170120   2.815376761
  C   -1.537864727  -0.883407754   2.777369875
  C   -2.846322845  -1.209334901   2.064042350
  H    0.355118012  -1.812107463   3.315409048
  H   -0.337044207  -2.395273351   1.803364054
  H   -1.019680605  -2.917705803   3.342097316
  H   -1.052985998  -0.050507907   2.267738819
  H   -1.748286610  -0.548199922   3.796012002
  H   -2.652465618  -1.517617199   1.036276360
  H   -3.510929793  -0.345779470   2.033656726
  H   -3.375870902  -2.023962789   2.561784711
