25
charge=0 charge_a=0 charge_b=0 selection_a=1-10 selection_b=11-25 scaling=1.00 benchmark_Eint=-3.419 benchmark_unit=kcal/mol group=PS
  C   -2.654460438   0.133724074   0.924128072
  C   -2.133811432   0.969987100  -0.203656277
  S   -1.622495145   2.499119170   0.000776075
  C   -2.099258865   0.281078025  -1.534202005
  H   -2.756019612   0.708756951   1.838188207
  H   -1.964271615  -0.696701397   1.098494321
  H   -3.616756561  -0.309814000   0.657912299
  H   -3.114206840   0.005163899  -1.832118010
  H   -1.537621607  -0.652390643  -1.454860274
  H   -1.658897694   0.908057276  -2.301810350
  C    1.181025449   0.421443443   1.617284316
  C    1.892165100  -0.814594465   2.241326350
  C    1.026065747  -1.916458585   1.605539544
  C    0.715438334  -1.512503226   0.377666627
  C    1.364265049  -0.131507692   0.173604029
  C    2.889296950  -0.342615800   0.208819312
  C    3.202603900  -0.747904451   1.434735772
  H    1.713507392   1.354511244   1.785809829
  H    0.139882777   0.518707721   1.912723920
  H    1.996094639  -0.851444672   3.320519314
  H    0.793996042  -2.859570804   2.073836598
  H    0.182165519  -2.060057468  -0.383094117
  H    0.980791578   0.465386198  -0.646017296
  H    3.541769245  -0.224747733  -0.641155462
  H    4.169246141  -1.037111366   1.814305292
