18
charge=0 charge_a=0 charge_b=0 selection_a=1-11 selection_b=12-18 scaling=1.00 benchmark_Eint=-2.942 benchmark_unit=kcal/mol group=PS
  C    0.675262267  -0.025088122  -1.554345236
  C   -0.630834347  -0.033549182  -1.075279773
  C   -1.006246940   0.565654598   0.116697644
  P    0.058193672   1.405328943   1.197422864
  C    1.557056502   1.237728498   0.341670362
  C    1.721289144   0.587359635  -0.872492181
  H    0.886113975  -0.515832395  -2.494138115
  H   -1.387360691  -0.535247985  -1.666076638
  H   -2.047147974   0.506478412   0.409425354
  H    2.431443013   1.679416662   0.803147190
  H    2.710536249   0.546753916  -1.311176144
  C   -0.036969185  -2.380622167   2.229707310
  N    1.105586746  -2.379690665   1.318904909
  H   -0.983665909  -2.058110056   1.780113821
  H    0.172703048  -1.715527704   3.066582923
  H   -0.177542637  -3.381993617   2.636016914
  H    1.269973961  -1.449100385   0.959569587
  H    0.925354743  -2.970831583   0.518714878
