9
charge=0 charge_a=0 charge_b=0 selection_a=1-4 selection_b=5-9 scaling=1.00 benchmark_Eint=-2.442 benchmark_unit=kcal/mol group=PS
  P   -0.007812987  -1.315332907  -0.239614339
  P    0.750164319   0.673217144  -0.808319337
  P   -1.300662046   0.455727524  -0.044905573
  P   -0.780838439  -0.315565554  -2.044860591
  N    0.312686164   1.188776279   2.956756044
  N    1.059063214   0.340808899   2.899195282
  C    1.906746804  -0.628210843   2.821519759
  H    1.954141583  -1.323392422   3.639877976
  H    2.520703665  -0.686930228   1.941521395
