11
charge=0 charge_a=0 charge_b=0 selection_a=1-4 selection_b=5-11 scaling=1.00 benchmark_Eint=-1.598 benchmark_unit=kcal/mol group=PS
  P    0.805627587   0.688684945   1.571375418
  H    2.024147287   1.180301722   1.042994973
  H    0.173880506   1.956069637   1.544002661
  H    1.224544309   0.818482449   2.918297221
  C   -0.116847187   0.677916150  -1.993841284
  N   -0.348192821  -0.732249752  -1.688367623
  H   -0.750173614   1.383512407  -1.441675022
  H   -0.275844442   0.848924511  -3.057999909
  H    0.922934011   0.925763855  -1.781333497
  H   -1.299900778  -0.995321123  -1.905908752
  H   -0.210985278  -0.906842537  -0.701132706
