14
charge=0 charge_a=0 charge_b=0 selection_a=1-9 selection_b=10-14 scaling=1.00 benchmark_Eint=-3.462 benchmark_unit=kcal/mol group=PS
  C   -1.459347478   0.859712825  -0.285561873
  C   -1.956876256  -0.455665048  -0.499865393
  C   -1.027934798  -1.280198820  -1.067254840
  S    0.455564443  -0.460603505  -1.344298349
  C   -0.165716822   1.002925081  -0.696531079
  H   -2.033964410   1.658682738   0.155862176
  H   -2.956276329  -0.772182740  -0.245464376
  H   -1.134190650  -2.316165805  -1.337074063
  H    0.456091272   1.879149580  -0.644374139
  N    1.791902722   1.311472762   2.231856858
  N    1.156195034   0.382737081   2.350507703
  C    0.424499729  -0.670702889   2.475599449
  H   -0.327807854  -0.846821052   1.727481282
  H    0.623259733  -1.323757293   3.306025619
