15
charge=0 charge_a=0 charge_b=0 selection_a=1-10 selection_b=11-15 scaling=1.00 benchmark_Eint=-4.072 benchmark_unit=kcal/mol group=PS
  C   -2.454898737   0.794695976  -0.436969432
  C   -1.320236407  -0.079901236  -0.873112037
  S   -0.304681967   0.340495290  -2.073355109
  C   -1.185008500  -1.363613414  -0.113152446
  H   -2.550179327   1.674689613  -1.063481673
  H   -2.290071356   1.105354769   0.598016328
  H   -3.391118799   0.231378914  -0.446524882
  H   -2.083969519  -1.968700653  -0.257217970
  H   -1.121330885  -1.155687484   0.957499410
  H   -0.316935528  -1.931709207  -0.428172598
  N    0.334185995   1.167738216   1.810216508
  N    1.210360619   0.676166703   1.287446856
  C    2.192098904   0.108749209   0.677091176
  H    2.073386239  -0.081587872  -0.375734354
  H    3.069707034  -0.131642063   1.249692552
