12
charge=0 charge_a=0 charge_b=0 selection_a=1-10 selection_b=11-12 scaling=1.00 benchmark_Eint=-1.349 benchmark_unit=kcal/mol group=PS
  C   -1.762218843   0.690546130  -0.714049935
  C   -0.862157815  -0.506954052  -0.750808732
  S    0.522181253  -0.535231689  -1.601813366
  C   -1.329682543  -1.671514958   0.068135521
  H   -1.381824100   1.499277965  -1.328409930
  H   -1.868937069   1.036431253   0.317199353
  H   -2.764162522   0.415333517  -1.053091490
  H   -2.326162812  -1.981129172  -0.257043095
  H   -1.425888163  -1.368043338   1.113662909
  H   -0.648531789  -2.512513005  -0.002069628
  N    0.571503160   0.679591787   2.010095275
  N    1.621210827   0.942624683   2.137970417
