8
charge=0 charge_a=0 charge_b=0 selection_a=1-3 selection_b=4-8 scaling=1.00 benchmark_Eint=-2.183 benchmark_unit=kcal/mol group=PS
  S    1.178820231  -0.712315455  -1.118064702
  C    0.139922303   0.217322908  -0.431399902
  S   -0.901688297   1.132794616   0.258816503
  N   -1.877564169  -2.475183124   0.801850062
  N   -0.962500741  -2.400014311   1.462089816
  C    0.084819043  -2.306189056   2.209385408
  H    1.008401326  -2.019573762   1.740321463
  H   -0.024034506  -2.515946546   3.257855242
