13
charge=0 charge_a=0 charge_b=0 selection_a=1-9 selection_b=10-13 scaling=1.00 benchmark_Eint=-2.277 benchmark_unit=kcal/mol group=PS
  C   -0.903716496   0.642602211  -0.012645017
  C   -0.579661680   0.344490644   1.339166397
  C    0.000563707  -0.883398783   1.479945744
  S    0.153972497  -1.684572833  -0.031835591
  C   -0.562842941  -0.365730146  -0.866969722
  H   -1.363086323   1.564283120  -0.333104808
  H   -0.765963371   1.012478483   2.165278746
  H    0.339535575  -1.359637685   2.383186130
  H   -0.695040815  -0.407306521  -1.933910500
  N    2.550009249   1.473156988   0.053365170
  H    2.034934091   1.293532646  -0.799221367
  H    3.475117502   1.081067385  -0.068766480
  H    2.088671931   0.935226161   0.776744637
