19
charge=0 charge_a=0 charge_b=0 selection_a=1-10 selection_b=11-19 scaling=1.00 benchmark_Eint=-3.748 benchmark_unit=kcal/mol group=PS
  C    1.312117504   0.843904098  -3.497663443
  S    1.252784224  -0.354058447  -2.127608426
  S   -0.440073011  -1.438250131  -2.517429120
  C   -1.764774417  -0.445023201  -1.758622229
  H    2.229731090   1.415600890  -3.364054741
  H    0.461813590   1.519190684  -3.459777660
  H    1.341130638   0.326166808  -4.451830612
  H   -2.682659369  -1.014058409  -1.903417392
  H   -1.860793177   0.515417626  -2.257842977
  H   -1.571853640  -0.318750069  -0.697502104
  C    0.208181519  -1.870160820   1.275570175
  O   -0.479919085  -0.638954413   1.355700955
  C    0.374481388   0.436349240   1.682375975
  H   -0.513192750  -2.628574645   0.983434999
  H    0.646077133  -2.140796225   2.243034705
  H    1.004518585  -1.832650356   0.526220016
  H   -0.236480514   1.334775146   1.729405691
  H    1.149832597   0.569094182   0.921473297
  H    0.854192108   0.279750453   2.655215788
