13
charge=0 charge_a=0 charge_b=0 selection_a=1-3 selection_b=4-13 scaling=1.00 benchmark_Eint=-2.655 benchmark_unit=kcal/mol group=PS
  S    0.109806489   0.969982897  -1.430625544
  C   -0.909853856  -0.056625260  -0.861428618
  S   -1.914769260  -1.084125389  -0.287563410
  C    1.792119007  -2.386905470  -0.102596866
  C    1.894448191  -1.246060730   0.883770948
  O    1.096000245  -1.104199228   1.779566014
  C    3.054248761  -0.295397382   0.691061559
  H    0.993138883  -3.062547159   0.185703409
  H    2.737567824  -2.927669712  -0.162869078
  H    1.589994005  -1.987925977  -1.098067291
  H    3.121412923   0.027400852  -0.347757612
  H    3.986746295  -0.812776350   0.926336522
  H    2.946022054   0.565088059   1.344096916
