19
charge=0 charge_a=0 charge_b=0 selection_a=1-9 selection_b=10-19 scaling=1.00 benchmark_Eint=-2.355 benchmark_unit=kcal/mol group=PS
  C    1.796859045  -1.252275281  -0.640164663
  C    2.287049325   0.069378792  -0.825926628
  C    1.576460044   0.764634195  -1.761224709
  S    0.307597617  -0.186079654  -2.422441230
  C    0.725733629  -1.530372572  -1.438958583
  H    2.219016185  -1.960733822   0.055107433
  H    3.125238373   0.483759910  -0.288117028
  H    1.727752838   1.775712024  -2.096098886
  H    0.162603103  -2.444800406  -1.502354041
  C   -0.805849415   0.178360965   1.292131277
  O   -1.525563772   1.157635986   2.008061797
  O   -2.279772745   0.416610789   3.017588209
  C   -3.031035712   1.392992538   3.700950752
  H   -0.243754085   0.732268262   0.543863392
  H   -1.477809024  -0.526070297   0.799701191
  H   -0.115907862  -0.360592237   1.943583183
  H   -3.589140761   0.839789491   4.454678657
  H   -3.723975932   1.902377934   3.027959525
  H   -2.381337687   2.124518857   4.186129560
