34
charge=0 charge_a=0 charge_b=0 selection_a=1-12 selection_b=13-34 scaling=1.00 benchmark_Eint=-5.794 benchmark_unit=kcal/mol group=PS
  S    3.089971952   0.537536844  -2.728873099
  C    2.614220417  -1.186607186  -2.423279695
  S    1.376723499  -1.458620484  -1.125647206
  C   -0.035752895  -0.623116495  -1.897591109
  S    0.132744163   1.164417396  -2.143378845
  C    1.496006296   1.157762014  -3.338340539
  H    3.515498480  -1.701574460  -2.102946512
  H    2.272893244  -1.639303332  -3.353636322
  H   -0.868641249  -0.754249178  -1.215609789
  H   -0.266803171  -1.103829705  -2.847180421
  H    1.660530419   2.192728458  -3.624634050
  H    1.206086525   0.598123094  -4.227091089
  C    0.312034356  -0.921145002   2.648539507
  C   -0.279651312   0.377390917   2.132754379
  C    0.759580594   1.378660680   1.673609943
  O   -1.121364678   0.174437000   0.991929635
  O   -2.227044334  -0.680121901   1.383108256
  C   -2.985825677   0.007760578   2.380749711
  C   -4.026891316  -0.995917109   2.834459363
  C   -3.575741511   1.306541896   1.860303384
  O   -2.148117193   0.204942192   3.517167526
  O   -1.046127647   1.063082306   3.122321936
  H    0.919144770  -1.371185228   1.866900801
  H   -0.463680993  -1.618116479   2.943108014
  H    0.940648802  -0.709182787   3.510682600
  H    1.340871292   0.948977424   0.862059000
  H    1.418946871   1.616596597   2.505111228
  H    0.278603541   2.287118830   1.321919603
  H   -4.679842087  -1.243641156   2.000961639
  H   -4.622121339  -0.563036490   3.634837357
  H   -3.544594791  -1.900646471   3.194827922
  H   -4.226757218   1.094167393   1.014874593
  H   -2.797365244   1.989464182   1.541389399
  H   -4.157631243   1.779098206   2.648652121
