19
charge=0 charge_a=0 charge_b=0 selection_a=1-9 selection_b=10-19 scaling=1.00 benchmark_Eint=-3.409 benchmark_unit=kcal/mol group=PS
  C   -1.787848392  -1.335124775  -0.551598035
  S   -0.841521178  -1.769417920   0.929319618
  C   -1.162699390  -3.550567952   0.986457636
  H   -1.661593494  -0.266503128  -0.701401841
  H   -2.844190256  -1.560164153  -0.416137787
  H   -1.408285294  -1.866013790  -1.423184223
  H   -0.635226092  -3.946530262   1.850848352
  H   -0.790289240  -4.042634205   0.089585993
  H   -2.226641973  -3.751021627   1.099901304
  C    1.353540468   0.850942617  -1.030008355
  O    0.934515273   2.033954213  -0.375183094
  O   -0.446184627   1.818992945   0.023051501
  C   -0.467474480   1.871361933   1.437728126
  H    2.389544632   1.040944772  -1.308250861
  H    0.762056790   0.670024074  -1.929570875
  H    1.297975967  -0.015254939  -0.368923875
  H   -1.511327584   1.716348321   1.707410293
  H   -0.132808724   2.845439862   1.796858295
  H    0.140655628   1.077955315   1.874168299
