12
charge=0 charge_a=0 charge_b=0 selection_a=1-4 selection_b=5-12 scaling=1.00 benchmark_Eint=-1.519 benchmark_unit=kcal/mol group=PS
  P    0.414082286   0.834217307  -1.734449981
  P   -0.477402363  -0.830377797  -2.467815140
  H    0.405969929   1.526051404  -2.978170417
  H   -0.467831781  -1.518398594  -1.221587564
  B    0.458170718   0.227264985   2.279120453
  H   -0.220080537   1.144927334   2.594719749
  H    1.636463303   0.255182253   2.390162445
  H    0.151734651  -0.126824467   1.055661761
  B   -0.302029266  -1.212270854   1.628456413
  H    0.376217639  -2.130095573   1.311094135
  H   -1.480274758  -1.244477921   1.512878346
  H   -0.000356306  -0.861083781   2.853374693
