18
charge=0 charge_a=0 charge_b=0 selection_a=1-4 selection_b=5-18 scaling=1.00 benchmark_Eint=-2.383 benchmark_unit=kcal/mol group=PS
  P    0.684737307   0.208313286  -2.194724086
  P   -1.251749435   0.036789997  -1.628084304
  H    1.119591370   0.717695276  -0.941273004
  H   -1.688890089  -0.477552187  -2.882271307
  B    1.304171046  -0.654016031   1.856446128
  B   -0.015614188   0.394721973   1.925290055
  B    0.897132817  -1.594449101   3.198125456
  B    1.100662799   0.180830367   3.309209294
  B   -0.217686992  -1.380503563   1.812643554
  H    2.215281502  -0.711769640   1.113534641
  H   -0.324399237   1.308417440   1.250062043
  H    1.430725039  -2.520372598   3.693482204
  H    1.820862615   0.896019236   3.906949234
  H   -0.713600689  -2.110499386   1.034015418
  H   -0.093630301   0.781915847   3.207206010
  H   -1.089467101  -0.394130365   2.070548834
  H    0.598761882  -0.717748237   4.168726172
  H   -0.399016622  -1.894051102   3.039983478
