16
charge=0 charge_a=0 charge_b=0 selection_a=1-4 selection_b=5-16 scaling=1.00 benchmark_Eint=-3.575 benchmark_unit=kcal/mol group=PS
  P   -0.585538163  -1.099448061  -1.122703735
  P    1.330390941  -0.023764147  -1.096575796
  P   -0.558842759   1.097798815  -1.135308174
  P    0.092439265  -0.019157969  -2.922391792
  B    0.793906274  -1.210042150   2.465180906
  H    1.434797749  -2.212244989   2.476536593
  N    1.417373909   0.073259755   2.470983824
  H    2.421435534   0.118848880   2.482439238
  B    0.680433231   1.294698503   2.446620588
  H    1.228009425   2.350832720   2.442700511
  N   -0.742466660   1.192999493   2.421665699
  H   -1.283668116   2.039677700   2.397575106
  B   -1.431663898  -0.056213170   2.414032275
  H   -2.619672554  -0.110317071   2.383109180
  N   -0.632337460  -1.237755341   2.439632030
  H   -1.094739259  -2.130172987   2.428436021
