18
charge=0 charge_a=0 charge_b=0 selection_a=1-4 selection_b=5-18 scaling=1.00 benchmark_Eint=-1.889 benchmark_unit=kcal/mol group=PS
  P   -1.138684144  -1.124239820   1.975245969
  H   -1.340407526  -1.798310746   3.206603927
  H    0.017595158  -1.871117648   1.645911856
  H   -0.401185056  -0.069267321   2.563963927
  B    1.173447402   0.654647709  -0.513352063
  B    0.033093291  -0.106036947  -1.497669906
  B    1.225569584   2.123187046  -1.344103352
  B    1.559839545   0.561205798  -2.153927750
  B   -0.301305604   1.456268257  -0.687640161
  H    1.748704673   0.281843522   0.443228117
  H   -0.444808433  -1.180832535  -1.454035972
  H    1.846659403   3.105956588  -1.154538116
  H    2.489614876   0.101485903  -2.712223742
  H   -1.088446899   1.826813652   0.105215538
  H    0.448646681   0.114252322  -2.754938408
  H   -0.959129929   0.784365730  -1.643655003
  H    1.351620627   1.794492845  -2.638275759
  H   -0.055180994   2.468452639  -1.534322956
