19
charge=0 charge_a=0 charge_b=0 selection_a=1-11 selection_b=12-19 scaling=1.00 benchmark_Eint=-3.631 benchmark_unit=kcal/mol group=PS
  C   -2.166208820   1.875777569  -1.030365941
  C   -0.956030298   2.562091393  -1.034515207
  C    0.200555839   2.056099559  -1.606252670
  P    0.340986792   0.519575374  -2.398098965
  C   -1.285080682  -0.059781191  -2.231765303
  C   -2.319686493   0.619466482  -1.608193355
  H   -3.021022917   2.335406856  -0.554929794
  H   -0.919551602   3.533964958  -0.558404040
  H    1.099004272   2.658230916  -1.553306805
  H   -1.496250651  -1.037701412  -2.646080008
  H   -3.294492510   0.150728802  -1.557440586
  B    0.393659722  -0.530567064   1.193100973
  H    1.420862680   0.055297766   1.251114945
  H    0.327965628  -1.624372630   0.744820324
  H   -0.501548659   0.225879136   0.614727231
  B   -1.060818188   0.235247324   1.794880112
  H   -2.088679336  -0.351089988   1.743326669
  H   -0.994912349   1.327190768   2.249047013
  H   -0.167084359  -0.523882142   2.380830276
