22
charge=0 charge_a=0 charge_b=0 selection_a=1-8 selection_b=9-22 scaling=1.00 benchmark_Eint=-4.626 benchmark_unit=kcal/mol group=PS
  C   -1.240721760   0.137978642  -1.739487209
  S    0.000000108  -1.163991787  -2.088580055
  C    1.240721743   0.137978847  -1.739487213
  S   -0.000000127   1.388135772  -1.231398777
  H   -1.920978988  -0.134381378  -0.938193951
  H   -1.797705909   0.437063976  -2.622136157
  H    1.797705828   0.437064308  -2.622136161
  H    1.920979029  -0.134381149  -0.938193985
  B   -0.000000001  -0.595351903   3.303068627
  B    0.892365233  -0.895554391   1.900837875
  B   -0.892567870   0.705113578   2.700470678
  B    0.892567949   0.705113542   2.700470706
  B   -0.892365212  -0.895554271   1.900837847
  H   -0.000000019  -1.121603054   4.356086815
  H    1.721852773  -1.696208184   1.656547399
  H   -1.722513774   1.380855957   3.193316394
  H    1.722513789   1.380856009   3.193316409
  H   -1.721853029  -1.696207730   1.656547226
  H    1.336953853   0.302738612   1.502181009
  H   -0.000000010  -0.910872545   0.902808748
  H    0.000000107   1.505344949   2.102770756
  H   -1.336953712   0.302738670   1.502180969
