19
charge=0 charge_a=0 charge_b=0 selection_a=1-3 selection_b=4-19 scaling=1.00 benchmark_Eint=-3.113 benchmark_unit=kcal/mol group=PS
  S   -0.204145569  -0.348298082  -1.924147922
  C   -1.498226475   0.203112179  -1.270376845
  S   -2.780711521   0.760203435  -0.597545605
  B    1.703824506   0.024880067   2.369315349
  B   -0.007077568  -0.263527205   2.230450880
  B    1.185477252  -1.461945898   1.665671963
  B    0.584389707   1.394736583   1.753281177
  B    2.609398616  -0.803311229   0.931036236
  H    2.181638438   0.076607635   3.446106657
  H   -0.700496365  -0.542828326   3.139929048
  H    1.203888649  -2.461692447   2.289152690
  H    0.320016648   2.187267247   2.591303585
  H    3.543896669  -1.495297136   1.160384667
  H   -0.093601191  -1.192710811   1.306237921
  H   -0.542251275   0.625764226   1.512743905
  H    1.619155889  -1.631988035   0.470922635
  H    0.643512741   1.776493379   0.625353575
  H    2.665815353  -0.046274590   0.020395197
  H    1.950705556   1.025135523   1.661656587
