26
charge=0 charge_a=0 charge_b=0 selection_a=1-10 selection_b=11-26 scaling=1.00 benchmark_Eint=-5.003 benchmark_unit=kcal/mol group=PS
  C    0.275227490  -0.869663577  -4.202583066
  S    0.618725634  -0.968131569  -2.417656596
  S   -1.020334642  -0.091308637  -1.560089058
  C   -0.605436613   1.680728260  -1.553110776
  H    1.101040285  -1.378504440  -4.697835098
  H    0.241600122   0.164338040  -4.533646700
  H   -0.657319721  -1.374336184  -4.436127989
  H   -1.419960430   2.177662017  -1.028108425
  H   -0.541364934   2.067587763  -2.566051699
  H    0.324393441   1.846389290  -1.018696507
  B    1.179474018  -0.371743698   2.598444226
  B   -0.029937040  -1.458916014   1.977226680
  B    1.571800687  -1.325928856   1.215225503
  B   -0.590432315   0.215834971   2.422716435
  B    2.240331264   0.268940460   1.170879107
  H    1.641060389  -0.585556850   3.662594240
  H   -0.330882170  -2.470452817   2.499355262
  H    2.248938870  -2.284486437   1.320660151
  H   -1.188396083   0.194932198   3.444144493
  H    3.421362245   0.226087126   1.262450387
  H    0.357130630  -1.690639754   0.745494539
  H   -1.049831750  -0.807288609   1.614073731
  H    1.895486016  -0.621174342   0.191981272
  H   -0.882434950   1.056713368   1.628542072
  H    1.740436114   1.250129443   0.731508907
  H    0.710485791   0.780522264   2.482379170
