17
charge=0 charge_a=0 charge_b=0 selection_a=1-9 selection_b=10-17 scaling=1.00 benchmark_Eint=-3.691 benchmark_unit=kcal/mol group=PS
  C   -0.966361627   2.137714512  -1.057858034
  C   -2.020582706   1.188705442  -1.147058405
  C   -1.648741961   0.054388449  -1.810557289
  S   -0.015423792   0.136887075  -2.333772651
  C    0.181787461   1.702076768  -1.655225521
  H   -1.053924545   3.093755235  -0.566466769
  H   -3.004605696   1.337630341  -0.731547166
  H   -2.240458940  -0.820225948  -2.015572523
  H    1.126560223   2.210782398  -1.730735703
  B    0.766804493   0.196228438   1.507246782
  H    0.650472150   1.215301129   2.099886839
  H    1.783607916  -0.098587578   0.976704383
  H   -0.215140719   0.083851819   0.653392736
  B   -0.592963882  -0.901266452   1.423453861
  H   -0.477632928  -1.924094950   0.838000073
  H   -1.606526149  -0.606834345   1.961239414
  H    0.392165975  -0.792661620   2.284064849
