22
charge=0 charge_a=0 charge_b=0 selection_a=1-10 selection_b=11-22 scaling=1.00 benchmark_Eint=-3.462 benchmark_unit=kcal/mol group=PS
  C   -0.396499486  -2.593349751  -2.595851190
  S   -0.117158086  -1.803260438  -0.978896255
  S   -1.655002671  -0.458740932  -0.842284579
  C   -0.979175293   1.022757043  -1.653639110
  H    0.376593416  -3.353838427  -2.699664217
  H   -0.298214754  -1.872272768  -3.402575715
  H   -1.375035911  -3.063149402  -2.626719575
  H   -1.723410827   1.807190231  -1.523297719
  H   -0.821532330   0.849471472  -2.714604853
  H   -0.052573762   1.320015772  -1.173526572
  B    0.668290139   2.615656765   1.298048041
  H    0.590313384   3.778417229   1.051341771
  N   -0.395012567   1.917573558   1.938738363
  H   -1.225915856   2.426102823   2.185871284
  B   -0.336857444   0.521896708   2.243635143
  H   -1.237339970  -0.031969053   2.786879253
  N    0.863142616  -0.166500848   1.893976850
  H    0.922195434  -1.151470360   2.085500738
  B    1.958610522   0.464866921   1.238602917
  H    2.941839898  -0.137180465   0.944599834
  N    1.827692741   1.859032423   0.951003195
  H    2.591978245   2.329288701   0.498324778
