20
charge=0 charge_a=0 charge_b=0 selection_a=1-12 selection_b=13-20 scaling=1.00 benchmark_Eint=-3.446 benchmark_unit=kcal/mol group=PS
  S    1.122423475  -1.430486119  -1.922129078
  C   -0.568975417  -1.499135197  -2.571677789
  S   -1.779487562  -0.406904187  -1.774458240
  C   -1.066851945   1.192377820  -2.250322293
  S    0.564786456   1.577290886  -1.556277071
  C    1.530002428   0.277049117  -2.375861546
  H   -0.918713674  -2.514002846  -2.404890600
  H   -0.559877310  -1.310252069  -3.644595195
  H   -1.745758071   1.953436399  -1.876128386
  H   -1.030520799   1.268749991  -3.336520781
  H    2.563436319   0.432894874  -2.079488860
  H    1.459926648   0.398299365  -3.456291832
  B   -0.714741300  -1.011168891   1.718933978
  H   -1.802395709  -0.647606644   2.016232600
  H   -0.512786906  -2.118997331   1.351436784
  H    0.108896489  -0.731748161   2.702867702
  B    0.614928055   0.114519035   1.835139870
  H    1.707711920  -0.239238326   1.545758485
  H    0.401657330   1.218232454   2.209063979
  H   -0.195007880  -0.181668906   0.853154119
