21
charge=0 charge_a=0 charge_b=0 selection_a=1-9 selection_b=10-21 scaling=1.00 benchmark_Eint=-3.218 benchmark_unit=kcal/mol group=PS
  C    2.219432036  -0.952582595   1.646906590
  S    0.473382587  -1.108901157   2.093679349
  C   -0.110042459  -2.053174083   0.665021439
  H    2.704262048  -0.380489271   2.434368310
  H    2.324899378  -0.420706988   0.703225938
  H    2.694524148  -1.929469596   1.576906791
  H   -1.181810408  -2.189354418   0.784945405
  H    0.369207106  -3.029577098   0.620849918
  H    0.072516758  -1.507806215  -0.257902687
  B   -0.359610563   1.710836050   0.304652426
  H   -0.344185403   2.249160049   1.362864441
  N    0.809394834   1.644225471  -0.517570993
  H    1.660256405   2.050008204  -0.168977744
  B    0.816624018   1.052311583  -1.813293134
  H    1.807004310   1.012893902  -2.473599629
  N   -0.412683137   0.499876984  -2.283343619
  H   -0.433403211   0.077741139  -3.195259418
  B   -1.620046175   0.537979429  -1.519828076
  H   -2.632192762   0.072480446  -1.940240410
  N   -1.557428548   1.148982753  -0.235770228
  H   -2.392389218   1.183073502   0.322746780
