20
charge=0 charge_a=0 charge_b=0 selection_a=1-6 selection_b=7-20 scaling=1.00 benchmark_Eint=-3.144 benchmark_unit=kcal/mol group=PS
  S    0.721230594  -1.986385407  -2.620493260
  S   -1.078612350  -1.080508037  -3.119918383
  S   -1.348648279   0.285009658  -1.580199529
  S    0.041630888   1.758790829  -2.026605160
  S    1.842006919   0.856103839  -1.522511523
  S    2.118002624  -0.514683225  -3.057802952
  B   -1.225763318  -0.544323457   2.237154087
  B    0.131366719  -1.285336949   1.562727687
  B   -0.453175893   0.142837373   3.571642871
  B   -0.394257543  -1.615718977   3.242767353
  B    0.075087316   0.472871865   1.892339546
  H   -2.349710917  -0.514534393   1.888610197
  H    0.267666891  -1.943803403   0.598158523
  H   -0.861622619   0.808285896   4.453790930
  H   -0.748486331  -2.577890362   3.822966800
  H    0.150455696   1.445667192   1.234213996
  H    0.733052045  -1.915497321   2.585019108
  H    1.083604523  -0.339524061   1.552269066
  H    0.286749759  -0.841152482   4.101476706
  H    0.645940565   0.731683601   3.078610368
