22
charge=0 charge_a=0 charge_b=0 selection_a=1-11 selection_b=12-22 scaling=1.00 benchmark_Eint=-2.583 benchmark_unit=kcal/mol group=PS
  C   -2.522653513   3.409245501   1.712147932
  C   -1.474139873   4.118169943   1.135673418
  C   -0.406499134   3.506992111   0.495897339
  P   -0.198562152   1.796003135   0.308159284
  C   -1.623660168   1.218606599   1.106671446
  C   -2.589556703   2.019906473   1.695399032
  H   -3.318468200   3.960929004   2.192995552
  H   -1.497335819   5.199671916   1.191921817
  H    0.364895624   4.140942778   0.076214506
  H   -1.752441427   0.144597261   1.138132665
  H   -3.440989927   1.544702099   2.167303250
  C    2.655846675  -3.639521520  -1.275083674
  C    2.706363838  -2.249424497  -1.283544134
  C    1.705635847  -1.448387317  -0.755818841
  P    0.252023441  -2.026974351  -0.011414772
  C    0.487525039  -3.738737129  -0.154548817
  C    1.590006480  -4.349508262  -0.732685709
  H    3.478963219  -4.190955623  -1.707847427
  H    3.573103236  -1.773365427  -1.725788853
  H    1.823743195  -0.373750828  -0.803333017
  H   -0.295113731  -4.373558113   0.242381625
  H    1.627788992  -5.431554299  -0.765891286
