17
charge=0 charge_a=0 charge_b=0 selection_a=1-6 selection_b=7-17 scaling=1.00 benchmark_Eint=-3.898 benchmark_unit=kcal/mol group=PS
  P   -2.201631566  -0.622016546  -0.675044910
  P   -0.840242135  -1.773844466   0.687828359
  H   -2.995585354  -1.759658083  -0.979935425
  H   -1.399084387  -0.791593404  -1.830756615
  H   -1.870530117  -2.002838825   1.637233211
  H   -0.363722322  -0.632247899   1.375283804
  C    2.566327262  -0.124652567   0.531847460
  C    2.043463962  -0.097322650  -0.756637784
  C    1.126376180   0.850682671  -1.183056096
  P    0.476714041   2.131776375  -0.210892111
  C    1.301880712   1.825848265   1.283186217
  C    2.209610238   0.801282019   1.505702448
  H    3.274354937  -0.900255227   0.787186771
  H    2.368721429  -0.857979316  -1.455316964
  H    0.776012408   0.793062144  -2.205992574
  H    1.081680367   2.496282540   2.104729599
  H    2.661208945   0.710387127   2.485934359
