8
charge=0 charge_a=0 charge_b=0 selection_a=1-4 selection_b=5-8 scaling=1.00 benchmark_Eint=-2.084 benchmark_unit=kcal/mol group=PS
  P    1.834993583   1.960550673   1.872381631
  H    2.858303737   1.648130266   0.944400414
  H    2.688812084   2.744518332   2.689199993
  H    2.040530538   0.782243017   2.630880211
  P   -1.210178414  -0.016925812   0.503857015
  P    0.628091287  -1.164946285   0.121866313
  P    0.064481074   0.494696439  -1.210350372
  P   -1.098707076  -1.377606581  -1.227789759
