8
charge=0 charge_a=0 charge_b=0 selection_a=1-4 selection_b=5-8 scaling=1.00 benchmark_Eint=-4.561 benchmark_unit=kcal/mol group=PS
  P    0.015439613  -1.719053372  -1.353083200
  P    0.095573502   0.322416567  -2.166579880
  P   -1.753698856  -0.418371227  -1.235505873
  P   -1.106428835  -1.220533976  -3.184842461
  P   -0.085786377  -0.329426921   2.166562285
  P   -0.025685927   1.714646177   1.357933341
  P    1.753938117   0.429243328   1.230965584
  P    1.106648762   1.221079424   3.184550203
