13
charge=0 charge_a=0 charge_b=0 selection_a=1-9 selection_b=10-13 scaling=1.00 benchmark_Eint=-2.509 benchmark_unit=kcal/mol group=PS
  C   -1.093546124   2.040855664  -1.221552846
  C   -2.215168437   1.202062940  -1.466151079
  C   -1.863542259   0.009433939  -2.028862288
  S   -0.165437993  -0.099103646  -2.264649433
  C    0.083837878   1.465507509  -1.603629106
  H   -1.158356595   3.022498420  -0.779212357
  H   -3.233065170   1.471327963  -1.231990671
  H   -2.504394117  -0.805555596  -2.315925366
  H    1.077752459   1.869143385  -1.526105777
  P    0.010488509   0.221110185   1.733940292
  H   -0.809423726   1.337882372   2.028162373
  H   -0.926069916  -0.349377336   0.840341438
  H   -0.454495564  -0.523505539   2.848993498
