14
charge=0 charge_a=0 charge_b=0 selection_a=1-3 selection_b=4-14 scaling=1.00 benchmark_Eint=-3.254 benchmark_unit=kcal/mol group=PS
  S   -0.543781140   1.085065641  -1.835913715
  C   -1.108637728  -0.331203781  -1.566284982
  S   -1.668318480  -1.751709358  -1.278835432
  C    2.348984834  -0.042859097   0.364771628
  C    2.432438082   1.337066037   0.519149970
  C    1.509251796   2.076641042   1.241189230
  P    0.121818478   1.428797330   2.054857904
  C    0.307689143  -0.254106129   1.688368632
  C    1.330057840  -0.801431492   0.929108325
  H    3.106692622  -0.545738105  -0.219638751
  H    3.258954813   1.853995736   0.047023800
  H    1.653292164   3.148191902   1.304143769
  H   -0.448064064  -0.923536922   2.079499220
  H    1.333949028  -1.870462710   0.756924835
