17
charge=0 charge_a=0 charge_b=0 selection_a=1-6 selection_b=7-17 scaling=1.00 benchmark_Eint=-5.265 benchmark_unit=kcal/mol group=PS
  S    1.320767222  -0.661444753   0.185760828
  S   -0.490401780  -1.315455386  -0.578311367
  S   -1.679262957   0.373934839  -0.441896990
  S   -0.954918937   1.581016072  -1.975665436
  S    0.864619194   2.229119363  -1.217431980
  S    2.059318490   0.537079946  -1.347320719
  C   -2.684208217  -1.439014004   2.365793796
  C   -2.617087325  -2.795675170   2.064002075
  C   -1.475104670  -3.557696018   2.248587359
  P    0.033171433  -2.969082303   2.869205240
  C   -0.374464047  -1.306676858   3.145883885
  C   -1.607495339  -0.729944836   2.887603380
  H   -3.612487563  -0.914240156   2.188646872
  H   -3.502335627  -3.272715020   1.661825174
  H   -1.514426130  -4.606333209   1.981106691
  H    0.408463193  -0.673828146   3.543963826
  H   -1.740972169   0.325109784   3.089727844
