23
charge=0 charge_a=0 charge_b=0 selection_a=1-12 selection_b=13-23 scaling=1.00 benchmark_Eint=-4.295 benchmark_unit=kcal/mol group=PS
  S    1.739839155  -0.459886932  -0.690894191
  C    0.702914236  -0.577451074  -2.174385155
  S   -0.683454659   0.587160826  -2.281094895
  C    0.252036641   2.137814009  -2.364412455
  S    1.217601135   2.566546764  -0.888350020
  C    2.414681841   1.203310900  -0.945815467
  H    0.259118731  -1.568066418  -2.150336679
  H    1.324754421  -0.490069298  -3.064310617
  H   -0.479760880   2.930180417  -2.493827215
  H    0.907006369   2.130086213  -3.235094225
  H    3.116784058   1.376420736  -0.135138483
  H    2.961495216   1.241776531  -1.887435408
  C   -2.981688249  -0.828878304   3.222628860
  C   -3.225674805  -2.112729994   2.748997417
  C   -2.660933542  -2.610865787   1.583504725
  P   -1.581714225  -1.740697278   0.543459026
  C   -1.484681636  -0.229304453   1.384508722
  C   -2.146246192   0.069240514   2.564340895
  H   -3.460451619  -0.515052610   4.139902949
  H   -3.888863339  -2.750911248   3.320302414
  H   -2.908930766  -3.624251708   1.292217199
  H   -0.853647124   0.526959221   0.937177078
  H   -2.009086373   1.051466083   3.000420992
