19
charge=0 charge_a=0 charge_b=0 selection_a=1-10 selection_b=11-19 scaling=1.00 benchmark_Eint=-3.602 benchmark_unit=kcal/mol group=PS
  C    0.938038434   1.609617328  -2.410026004
  S    1.165122838  -0.195834747  -2.383970403
  S   -0.747700665  -0.905065092  -2.561323631
  C   -1.366065608  -0.902651862  -0.849185136
  H    1.935945730   2.045419722  -2.369418907
  H    0.368506019   1.935796119  -1.544657995
  H    0.445435514   1.915504594  -3.328245026
  H   -2.382194555  -1.292101528  -0.898435844
  H   -1.385880914   0.102425541  -0.440147971
  H   -0.757748430  -1.545136030  -0.221835252
  C    1.168945749   1.003619166   1.222909986
  C    0.963794539  -0.220539779   1.915174126
  C   -0.210936787  -0.239960668   2.608465552
  S   -1.076826457   1.232411958   2.422698574
  C    0.146030190   1.887574597   1.407776347
  H    2.032399926   1.209291514   0.611447673
  H    1.654386958  -1.048551964   1.889990827
  H   -0.615732993  -1.033937248   3.211067293
  H    0.045077546   2.882931716   1.012028174
