18
charge=0 charge_a=0 charge_b=0 selection_a=1-9 selection_b=10-18 scaling=1.00 benchmark_Eint=-4.482 benchmark_unit=kcal/mol group=PS
  C   -0.605505680   1.748048332   1.378301711
  S    0.558028854   1.909812251   0.000000378
  C   -0.605505457   1.748047486  -1.378301005
  H   -0.026639813   1.788842836   2.297836121
  H   -1.125747810   0.794380635   1.320400228
  H   -1.323711479   2.565921589   1.377396632
  H   -0.026639436   1.788841794  -2.297835204
  H   -1.323711229   2.565920750  -1.377395895
  H   -1.125747613   0.794379802  -1.320400083
  C    0.605505506  -1.748047506   1.378301104
  S   -0.558028748  -1.909812320  -0.000000351
  C    0.605505648  -1.748048341  -1.378301827
  H    0.026639417  -1.788841791   2.297835271
  H    1.125747659  -0.794379812   1.320400199
  H    1.323711292  -2.565920774   1.377396085
  H    0.026639668  -1.788842621  -2.297836092
  H    1.323711395  -2.565921640  -1.377396879
  H    1.125747825  -0.794380667  -1.320400394
