14
charge=0 charge_a=0 charge_b=0 selection_a=1-8 selection_b=9-14 scaling=1.00 benchmark_Eint=-5.221 benchmark_unit=kcal/mol group=PS
  C   -1.111538970  -1.408246358  -2.259994937
  S    0.119322720  -0.056705903  -2.143640829
  C   -1.205323783   0.873414944  -1.288852988
  S   -2.422056623  -0.491509546  -1.366785552
  H   -0.797758828  -2.306666497  -1.736375494
  H   -1.384616183  -1.642087977  -3.284407389
  H   -1.523936014   1.753757885  -1.838533500
  H   -0.937893439   1.130811933  -0.269608144
  S    1.264901573   1.154944443   1.619635654
  S   -0.095663264   1.483178748   3.156094525
  S   -1.816993823   0.548994767   2.460178786
  S   -1.361278769  -1.465066160   2.662970225
  S   -0.012153890  -1.775600372   1.119973324
  S    1.711214228  -0.861755848   1.821175787
