18
charge=0 charge_a=0 charge_b=0 selection_a=1-9 selection_b=10-18 scaling=1.00 benchmark_Eint=-3.575 benchmark_unit=kcal/mol group=PS
  C   -2.215044792  -0.944786803  -1.313368993
  C   -2.191466582  -0.877599262  -2.734366294
  C   -1.021914768  -0.362994801  -3.213078651
  S    0.055374415   0.042940551  -1.936380546
  C   -1.065392537  -0.480071093  -0.744733779
  H   -3.048769990  -1.320960126  -0.741125403
  H   -3.004574172  -1.196292046  -3.367876631
  H   -0.737305190  -0.200621334  -4.237870930
  H   -0.812336438  -0.416662754   0.298165653
  C    1.914075567   0.130797881   1.216090193
  C    1.179707078  -0.483105605   2.267521909
  C    0.239394192   0.348808109   2.804373019
  S    0.243642358   1.884136196   2.033480945
  C    1.514924812   1.414455581   0.979629718
  H    2.693777693  -0.360991569   0.656441956
  H    1.340561349  -1.494749298   2.605432536
  H   -0.448649488   0.145990715   3.606143169
  H    1.887632926   2.101178920   0.240615925
