21
charge=0 charge_a=0 charge_b=0 selection_a=1-12 selection_b=13-21 scaling=1.00 benchmark_Eint=-5.401 benchmark_unit=kcal/mol group=PS
  S    1.313847575  -0.417900200   0.177422453
  C   -0.221551510  -0.851149989  -0.681184851
  S   -1.243606875   0.539065485  -1.234150091
  C   -0.112191880   1.233385285  -2.470921602
  S    1.447454027   1.911594174  -1.836784665
  C    2.181829446   0.377166973  -1.203269292
  H   -0.824122425  -1.415514038   0.021951400
  H    0.008754559  -1.491419491  -1.532037069
  H   -0.636405640   2.061115305  -2.940166372
  H    0.100943711   0.485177693  -3.233795933
  H    3.169979905   0.640712379  -0.836861846
  H    2.297426935  -0.333848827  -2.020801509
  C   -3.072952305  -1.301204030   1.623382444
  C   -2.368112223  -0.135676665   2.032586274
  C   -1.205984605  -0.428551758   2.684035771
  S   -0.960263193  -2.124516896   2.804988281
  C   -2.428582875  -2.453457170   1.973211043
  H   -4.010415342  -1.282964914   1.090181605
  H   -2.697604952   0.871034763   1.833342957
  H   -0.471403036   0.253912100   3.072002709
  H   -2.735758116  -3.468877234   1.794536662
