8
charge=0 charge_a=0 charge_b=0 selection_a=1-2 selection_b=3-8 scaling=1.00 benchmark_Eint=-0.514 benchmark_unit=kcal/mol group=Halogens
  H   -2.852186004   0.079738701  -1.587649721
  H   -2.418316244   0.040443786  -2.188027374
  F    1.452005611   0.508564277  -0.810460904
  C    0.311365902   0.519211934  -0.149760440
  F   -0.151834328   1.734260316   0.064679944
  C   -0.306040596  -0.575382513   0.253368379
  F    0.153085466  -1.791324621   0.034822722
  F   -1.448521595  -0.563415560   0.910364200
