7
charge=0 charge_a=0 charge_b=0 selection_a=1-2 selection_b=3-7 scaling=1.00 benchmark_Eint=-0.357 benchmark_unit=kcal/mol group=Halogens
  H   -1.031933282   2.389907216  -2.258777028
  H   -1.039423001   1.845456356  -2.762203311
  C   -0.041192755   0.061946044   0.111346850
  F    0.071710718   1.347345843   0.415298161
  F   -1.311214804  -0.224107031  -0.136739403
  F    0.385539599  -0.671207726   1.130545620
  F    0.690392522  -0.205198881  -0.961012445
