7
charge=0 charge_a=0 charge_b=0 selection_a=1-5 selection_b=6-7 scaling=1.00 benchmark_Eint=-0.655 benchmark_unit=kcal/mol group=Halogens
  C   -1.789044882   0.700545520  -2.182339486
  I    0.270978224   0.381825393  -2.722367211
  H   -1.897066821   0.414842159  -1.144210629
  H   -2.393171857   0.079170775  -2.830179984
  H   -2.003098957   1.751004197  -2.328969342
  H   -0.095412524  -0.288065948   0.542942293
  H   -0.538603140  -0.336689048   1.137135386
