20
charge=0 charge_a=0 charge_b=0 selection_a=1-5 selection_b=6-20 scaling=1.00 benchmark_Eint=-3.357 benchmark_unit=kcal/mol group=Halogens
  C   -0.456887277   0.150513154  -1.740769564
  F   -1.153980240   1.219679731  -1.177937139
  H    0.414746650  -0.059107140  -1.126813483
  H   -0.159910310   0.427913228  -2.750872215
  H   -1.113258880  -0.716797517  -1.763391171
  C   -0.165132369  -0.264311130   1.766665263
  C   -1.218632637   0.686940241   2.261198167
  C    1.155877724   0.153412599   1.605094799
  C    2.122532818  -0.707062474   1.100781769
  C    1.784335586  -2.008588275   0.748460203
  C    0.473844999  -2.440007967   0.911660862
  C   -0.488342151  -1.574641596   1.417345618
  H   -1.635326800   1.253767636   1.427237094
  H   -0.806174722   1.400728285   2.972829086
  H   -2.036966678   0.156275324   2.745171654
  H    1.427499645   1.165708887   1.873342409
  H    3.140489227  -0.362015636   0.984412090
  H    2.535390849  -2.680479847   0.358155764
  H    0.200451306  -3.452282806   0.648048450
  H   -1.506555992  -1.919349641   1.540600249
