23
charge=0 charge_a=0 charge_b=0 selection_a=1-5 selection_b=6-23 scaling=1.00 benchmark_Eint=-1.770 benchmark_unit=kcal/mol group=Halogens
  C   -0.328531309  -0.000000024  -3.124351525
  F    0.950882494  -0.000000092  -2.577805257
  H   -0.851981192  -0.892028904  -2.785510161
  H   -0.243446752  -0.000000022  -4.209534461
  H   -0.851981123   0.892028894  -2.785510163
  C    1.155357303   0.000000034   1.845708173
  C    0.296168866   1.264130474   1.770436154
  C   -0.585138004   1.264461382   0.519172601
  C   -1.444216706   0.000000003   0.444177420
  C   -0.585138040  -1.264461411   0.519172535
  C    0.296168891  -1.264130449   1.770436110
  H    1.748213706   0.000000031   2.761978823
  H    1.864085167   0.000000073   1.012659362
  H    0.929345389   2.152767096   1.785753997
  H   -0.340864670   1.318658838   2.658751733
  H    0.056297668   1.315455582  -0.364550450
  H   -1.218536903   2.153361331   0.503422781
  H   -2.040718002   0.000000020  -0.470171545
  H   -2.155382260   0.000000007   1.275979863
  H    0.056297574  -1.315455604  -0.364550565
  H   -1.218536964  -2.153361373   0.503422699
  H    0.929345422  -2.152767047   1.785753899
  H   -0.340864644  -1.318658839   2.658751671
