15
charge=0 charge_a=0 charge_b=0 selection_a=1-6 selection_b=7-15 scaling=1.00 benchmark_Eint=-2.413 benchmark_unit=kcal/mol group=Halogens
  F    0.700037461   1.823642029  -0.856514399
  C    0.241260703   0.588436460  -0.902745013
  F    0.969364029  -0.206039377  -1.663058074
  C   -0.825717862   0.183720004  -0.242110899
  F   -1.545798270   0.973002671   0.528677750
  F   -1.274787669  -1.054901933  -0.277868038
  C    1.152842290  -0.904265572   2.256414185
  C    0.129260892  -0.567920786   3.030051899
  C   -1.122049408  -1.368810253   3.198681468
  H    2.032426348  -0.281121569   2.177054775
  H    1.147283586  -1.819206661   1.677170854
  H    0.181174056   0.359346511   3.591507790
  H   -1.098801579  -2.276741673   2.598126950
  H   -1.999264298  -0.787859123   2.906979399
  H   -1.266631402  -1.650856652   4.243664252
