24
charge=0 charge_a=0 charge_b=0 selection_a=1-6 selection_b=7-24 scaling=1.00 benchmark_Eint=-2.372 benchmark_unit=kcal/mol group=Halogens
  F    0.974592206  -1.386071978  -2.028758666
  C   -0.121127888  -0.659805805  -1.939470448
  F   -1.217494524  -1.385386973  -1.844252012
  C   -0.121121803   0.659807877  -1.939471901
  F    0.974605904   1.386062188  -2.028761039
  F   -1.217480419   1.385401577  -1.844255531
  C   -1.013996833  -0.000001732   3.218949617
  C   -0.182097932  -1.264586538   2.993930336
  C    0.470305658  -1.263751323   1.609742894
  C    1.303543097   0.000000805   1.387542394
  C    0.470302681   1.263751297   1.609740646
  C   -0.182101340   1.264585027   2.993927900
  H   -1.437691007  -0.000001660   4.224517167
  H   -1.859603632  -0.000004014   2.524268429
  H   -0.803086048  -2.153120507   3.118487662
  H    0.599580568  -1.320127728   3.757633226
  H   -0.315805286  -1.316750179   0.850435742
  H    1.088472404  -2.153275576   1.479847202
  H    1.738218511   0.000000031   0.387188459
  H    2.144330799   0.000004058   2.087628284
  H   -0.315807925   1.316747774   0.850433045
  H    1.088467339   2.153277026   1.479844518
  H   -0.803092813   2.153117014   3.118484696
  H    0.599576544   1.320129338   3.757631139
