32
charge=0 charge_a=0 charge_b=0 selection_a=1-12 selection_b=13-32 scaling=1.00 benchmark_Eint=-4.090 benchmark_unit=kcal/mol group=Halogens
  F   -1.514024768   2.008062465   0.322297082
  C   -0.669009793   1.221584718  -0.338614225
  C    0.631090178   1.643530994  -0.573971929
  F    1.032121164   2.835247620  -0.140745198
  C    1.516203420   0.817452757  -1.250896504
  F    2.767465655   1.216582917  -1.463767217
  C    1.100543125  -0.429148827  -1.696085034
  F    1.952074199  -1.224280913  -2.338265971
  C   -0.200844366  -0.850148768  -1.462919145
  F   -0.597632759  -2.049541682  -1.880436859
  C   -1.085340512  -0.024538910  -0.784324011
  F   -2.330488037  -0.432202410  -0.551722805
  C    1.426986882  -0.830943750   2.156160256
  C    0.349467464  -1.427200745   3.086160062
  C   -0.919097678  -0.565719028   3.078759504
  C    0.000623857  -2.827391303   2.565816317
  C    0.879525534  -1.544270999   4.520420052
  C    1.903861503   0.582683069   2.478886468
  H    1.036740254  -0.851978847   1.137032577
  H    2.287256402  -1.505119292   2.160155518
  H   -0.732185670   0.436870262   3.460469815
  H   -1.327228302  -0.473090607   2.072173175
  H   -1.690228624  -1.016810945   3.703854276
  H    0.879164630  -3.473923732   2.560993851
  H   -0.386500664  -2.781823985   1.546679401
  H   -0.759268180  -3.298682836   3.189973464
  H    1.795620705  -2.135990131   4.551484877
  H    1.094816409  -0.567642249   4.952124992
  H    0.144814614  -2.032076589   5.161821119
  H    1.091716516   1.307378005   2.439022349
  H    2.350467352   0.642473449   3.470354948
  H    2.661936474   0.903074301   1.764374351
