25
charge=0 charge_a=0 charge_b=0 selection_a=1-5 selection_b=6-25 scaling=1.00 benchmark_Eint=-3.475 benchmark_unit=kcal/mol group=Halogens
  C   -1.003997446   0.874763806  -1.091554128
 Cl   -0.755615893   2.630143221  -1.228461991
 Cl    0.363186606   0.148864706  -0.216278468
 Cl   -1.114124937   0.162065180  -2.717255396
 Cl   -2.512069399   0.557563654  -0.202626549
  C   -1.188321927   5.094790323   1.770821212
  C   -1.440631075   3.700794057   2.336700875
  C   -0.153703526   2.935735488   2.633412831
  C   -0.392142448   1.532821034   3.182516252
  C    0.894931921   0.765453252   3.470763252
  C    0.643843847  -0.661269251   3.949724906
  H   -2.120910829   5.618379088   1.560856054
  H   -0.620147808   5.041552977   0.840919784
  H   -0.614033428   5.704638057   2.469902242
  H   -2.044905435   3.124776182   1.632521364
  H   -2.032767683   3.778373045   3.252398437
  H    0.450677878   3.507257408   3.344486736
  H    0.440839630   2.866488450   1.718255512
  H   -0.995299428   0.965293706   2.469442886
  H   -0.987293319   1.595948636   4.098612674
  H    1.479059130   1.308353518   4.218439623
  H    1.508475651   0.745069922   2.566440338
  H    0.051271571  -0.668957782   4.865810074
  H    1.576447833  -1.187476896   4.153294371
  H    0.095316495  -1.233004662   3.199581545
