8
charge=0 charge_a=0 charge_b=0 selection_a=1-2 selection_b=3-8 scaling=1.00 benchmark_Eint=-1.431 benchmark_unit=kcal/mol group=Halogens
 Cl    1.013493436  -0.095715529  -1.891251748
 Cl   -0.943211816   0.314806017  -1.715609642
  C    0.659283456   1.469121048   1.894765969
  C    0.400174794   0.302361570   1.757116294
  C    0.106234495  -1.017696903   1.592423386
  C   -0.153809479  -2.182241674   1.438888987
  H    0.887617285   2.498069217   2.013843009
  H   -0.383257736  -3.208600675   1.301079287
