17
charge=0 charge_a=0 charge_b=0 selection_a=1-2 selection_b=3-17 scaling=1.00 benchmark_Eint=-2.143 benchmark_unit=kcal/mol group=Halogens
 Cl    0.608276002   0.990723756  -1.510669565
 Cl   -0.401979034  -0.698365839  -1.888663869
  C   -0.480727901  -0.687157153   3.473029528
  C    0.212040066   0.427809987   2.635829846
  C    1.129675431  -0.470095781   1.785663128
  C    0.455019705  -1.583599417   1.521577451
  C   -0.925439575  -1.449415069   2.190408149
  C   -1.661457046  -0.293279606   1.488536773
  C   -0.986725448   0.820148057   1.752690459
  H   -1.317048530  -0.320884902   4.065192602
  H    0.214219856  -1.254422214   4.089069946
  H    0.697292069   1.237392310   3.170721581
  H    2.108139228  -0.186431191   1.434002334
  H    0.758315244  -2.414342164   0.905667971
  H   -1.487878697  -2.368733019   2.315018148
  H   -2.524460065  -0.412943965   0.854211140
  H   -1.174485652   1.814814107   1.382704603
