20
charge=0 charge_a=0 charge_b=0 selection_a=1-2 selection_b=3-20 scaling=1.00 benchmark_Eint=-3.140 benchmark_unit=kcal/mol group=Halogens
 Cl    0.028083510   0.208450362  -1.671496106
 Cl   -1.556399610   1.422139709  -1.464079415
  C    1.574683349  -0.724446788   1.711771091
  C    0.678221341  -1.800147967   1.540585351
  C   -0.673679340  -1.585930192   1.582099165
  C   -1.196236588  -0.289456900   1.798622251
  C   -2.586613994  -0.033941386   1.847129034
  C   -3.060646936   1.233472588   2.057358728
  C   -2.164188065   2.309420049   2.226978149
  C   -0.812300194   2.095564272   2.183375896
  C   -0.289710412   0.798429763   1.970935833
  C    1.100650798   0.543230588   1.920402938
  H    2.639547015  -0.905833115   1.675580361
  H    1.064378709  -2.795846905   1.374540811
  H   -1.363060745  -2.408585041   1.447829547
  H   -3.271982373  -0.859943272   1.712906335
  H   -4.125512047   1.415061273   2.092364025
  H   -2.550370753   3.305589582   2.390167160
  H   -0.122986692   2.919502505   2.309857604
  H    1.785993844   1.370281841   2.048039139
