22
charge=0 charge_a=0 charge_b=0 selection_a=1-5 selection_b=6-22 scaling=1.00 benchmark_Eint=-2.065 benchmark_unit=kcal/mol group=Halogens
  C   -1.823469956   0.581425862  -1.441985645
 Cl   -0.106701447   0.391988363  -1.929576153
  H   -2.048496476  -0.172518080  -0.697159020
  H   -2.442064740   0.450921491  -2.322262224
  H   -1.950849383   1.574378971  -1.026876783
  C   -0.347142407   0.800880589   2.070093864
  C    0.194779622  -0.599324325   2.361249375
  C   -0.512050989  -1.644468147   1.495917673
  C    1.717025581  -0.629832087   2.174249722
  C    2.384342180  -1.938448111   2.589692168
  H   -1.428093740   0.845386771   2.209826895
  H   -0.126902352   1.090114085   1.041523005
  H    0.105777294   1.543901114   2.727174909
  H   -0.015509160  -0.831927421   3.410835724
  H   -0.279654700  -1.487519509   0.441111036
  H   -1.594340705  -1.583325122   1.618707087
  H   -0.211919111  -2.658598642   1.754611608
  H    2.152070956   0.189999417   2.751068804
  H    1.942983244  -0.417361162   1.125401027
  H    2.149716703  -2.185710194   3.626597506
  H    3.468545267  -1.868690371   2.503813852
  H    2.061745602  -2.773620674   1.969220067
