20
charge=0 charge_a=0 charge_b=0 selection_a=1-15 selection_b=16-20 scaling=1.00 benchmark_Eint=-2.126 benchmark_unit=kcal/mol group=Halogens
  C    0.352428855   2.944190326  -2.609911283
  C    0.948598235   2.498874146  -1.242437428
  C   -0.352046427   2.504554930  -0.418828475
  C   -1.325984619   2.084830110  -1.218948233
  C   -0.693506836   1.791173367  -2.591454426
  C    0.277808899   0.611923395  -2.399008124
  C    1.252225160   1.031869842  -1.598541296
  H    1.061330730   2.866346598  -3.431959636
  H   -0.099902627   3.933448095  -2.578275770
  H    1.774785321   3.072932303  -0.836494585
  H   -0.409431963   2.739891067   0.631358648
  H   -2.358111854   1.900181119  -0.969555684
  H   -1.379795772   1.713389693  -3.428041226
  H    0.126267257  -0.377225585  -2.799165916
  H    2.075194928   0.462690186  -1.198219458
  C   -0.987973351  -2.541846675   1.904666948
 Br   -0.504911772  -1.166535856   0.596487834
  H   -0.429706747  -2.346809123   2.811686542
  H   -0.725723089  -3.505350714   1.486087061
  H   -2.053884189  -2.471349967   2.081439740
