8
charge=0 charge_a=0 charge_b=0 selection_a=1-6 selection_b=7-8 scaling=1.00 benchmark_Eint=-1.326 benchmark_unit=kcal/mol group=Halogens
  C   -4.647544715  -0.911675721  -2.916422224
  C   -3.474749082  -0.820061522  -2.662497294
  C   -2.146800977  -0.714814511  -2.374442253
  C   -0.974759768  -0.620740217  -2.118371991
  H   -5.681122660  -0.992231977  -3.140771900
  H    0.057329521  -0.532327466  -1.887018721
 Br    0.326660384  -0.349749907   1.501743083
 Br    2.110354148   0.223982434   0.147726223
