22
charge=0 charge_a=0 charge_b=0 selection_a=1-20 selection_b=21-22 scaling=1.00 benchmark_Eint=-2.344 benchmark_unit=kcal/mol group=Halogens
  C    0.046113670   1.781108985  -2.450303111
  C    1.469728379   1.803823501  -3.014254185
  C    2.135201643   3.135014256  -2.654166106
  C    2.300665528   0.591176178  -2.543020124
  C    1.639156811  -0.740492440  -2.905813695
  C    3.729071080   0.614028381  -3.092882428
  H   -0.504880385   2.667947012  -2.763574506
  H    0.067315678   1.772686190  -1.358570865
  H   -0.517484273   0.911131622  -2.779854402
  H    1.401663924   1.744721038  -4.106711206
  H    2.294142418   3.205643142  -1.575715077
  H    1.503037533   3.972571039  -2.949317602
  H    3.098383664   3.263460761  -3.142968326
  H    2.361990402   0.651581860  -1.451814607
  H    1.488151234  -0.813794691  -3.985140656
  H    0.674086557  -0.869536691  -2.422025376
  H    2.269619980  -1.575769705  -2.602609346
  H    3.722970827   0.628056096  -4.185173081
  H    4.272618695  -0.276854458  -2.778009952
  H    4.292467390   1.479145300  -2.750324459
 Br    2.850388496  -1.573585557   0.713502806
 Br    0.712162567  -0.719406339   0.902139344
