25
charge=0 charge_a=0 charge_b=0 selection_a=1-20 selection_b=21-25 scaling=1.00 benchmark_Eint=-3.324 benchmark_unit=kcal/mol group=Halogens
  C   -1.219788257  -0.399270338  -2.073295896
  C    0.129101765  -0.084376677  -2.754575166
  C    0.884950163   1.013051401  -1.994416113
  C    0.974083201  -1.364541116  -2.741648169
  C   -0.088694261   0.357820975  -4.206677174
  C   -2.218543524   0.750929177  -1.971412513
  H   -1.014140568  -0.789601892  -1.074252099
  H   -1.688429342  -1.222601466  -2.618310558
  H    0.337150865   1.954922186  -1.991361755
  H    1.070074175   0.716852070  -0.961305811
  H    1.853647542   1.201184571  -2.458728461
  H    0.473270641  -2.168357127  -3.283036925
  H    1.148673796  -1.705084361  -1.720570806
  H    1.944022434  -1.197407113  -3.211803948
  H   -0.646310075  -0.395766131  -4.764887530
  H   -0.639611504   1.295860228  -4.265577019
  H    0.867529853   0.506242941  -4.709747985
  H   -1.814151698   1.599678320  -1.419053701
  H   -2.517634885   1.115892428  -2.953079757
  H   -3.118658047   0.426671889  -1.451507191
  C   -0.833737164   0.459089435   1.603766004
 Br   -2.581268461  -0.368445637   1.779477717
 Br    0.642824268  -0.800186767   1.705511709
  H   -0.720054877   1.161884874   2.415093014
  H   -0.791845731   0.932123152   0.634463987
