11
charge=0 charge_a=0 charge_b=0 selection_a=1-6 selection_b=7-11 scaling=1.00 benchmark_Eint=-2.418 benchmark_unit=kcal/mol group=Halogens
  C   -1.543497624  -0.316114737  -1.445192657
  C   -0.373728830  -0.138290925  -1.661929397
  C    0.954414273   0.060305300  -1.889858672
  C    2.129438117   0.234514809  -2.083066830
  H   -2.572092769  -0.474594100  -1.242604497
  H    3.163966997   0.388894822  -2.259252318
  C   -0.863620426  -0.928790701   2.499598870
 Br    0.900548077  -0.576532917   1.752458886
 Br   -2.025459286   0.613021988   2.190979511
 Br   -0.713073394  -1.248710770   4.422056753
 Br   -1.635379458  -2.506591833   1.641038747
