22
charge=0 charge_a=0 charge_b=0 selection_a=1-17 selection_b=18-22 scaling=1.00 benchmark_Eint=-2.687 benchmark_unit=kcal/mol group=Halogens
  C   -0.186331746   1.107231758  -3.006386994
  C    1.079481257   0.343172711  -3.395197139
  C    2.190930965   1.314180592  -3.796006956
  C    1.512776943  -0.592016002  -2.258777259
  C    2.657988612  -1.538282123  -2.609515926
  H   -0.525209554   1.748559012  -3.820417702
  H   -0.003131806   1.740149866  -2.136560008
  H   -0.998310025   0.427252621  -2.749988937
  H    0.845653737  -0.281966599  -4.263762986
  H    2.475612612   1.939665460  -2.947040265
  H    1.859241106   1.974947217  -4.597152591
  H    3.083422214   0.796581967  -4.144412784
  H    0.644670270  -1.180990203  -1.952399049
  H    1.794035039   0.022674499  -1.398266975
  H    2.410179225  -2.143040893  -3.483287244
  H    2.871384022  -2.220768747  -1.786511798
  H    3.577479051  -0.998127286  -2.830795252
  C   -0.062405572  -0.374709487   1.070295104
 Br    0.390196162   1.513900249   1.124970828
 Br   -1.806864813  -0.745012217   0.300783593
  H   -0.069019223  -0.738338810   2.086534898
  H    0.674493185  -0.866275250   0.453960772
