16
charge=0 charge_a=0 charge_b=0 selection_a=1-5 selection_b=6-16 scaling=1.00 benchmark_Eint=-3.791 benchmark_unit=kcal/mol group=Halogens
  C   -0.046647048   1.110215726  -3.420136049
  I    1.935223886   1.834727008  -3.825685991
  I   -0.442144201   0.610108421  -1.369576651
  H   -0.182720252   0.216981456  -4.011585004
  H   -0.732973451   1.891575747  -3.710717218
  C    0.529789860   1.133918032   2.319562972
  C    1.426394099  -0.067164899   2.255366339
  C    0.694797646  -1.150089116   1.946320954
  C   -0.706066085  -0.755543095   1.786575542
  C   -0.822166690   0.569177827   1.996458351
  H    0.832098639   1.907328880   1.606757262
  H    0.547002291   1.607309427   3.306689087
  H    2.490156920  -0.033863697   2.425489202
  H    1.064025763  -2.156100356   1.822332690
  H   -1.509279453  -1.433192649   1.541252867
  H   -1.727934732   1.152003490   1.958943294
