25
charge=0 charge_a=0 charge_b=0 selection_a=1-5 selection_b=6-25 scaling=1.00 benchmark_Eint=-3.611 benchmark_unit=kcal/mol group=Halogens
  C   -0.021950137   1.556114071  -1.488298223
  I    0.156150435  -0.500105651  -2.067935623
  I   -1.986255740   2.192702478  -0.918070738
  H    0.277404429   2.154408802  -2.335373615
  H    0.622144966   1.706179267  -0.635534493
  C    1.450688630   0.431154747   1.927487460
  C    0.523519843  -0.576382736   2.640206662
  C   -0.915474188  -0.453534653   2.124838237
  C    1.040222068  -1.988010505   2.334532893
  C    0.546532213  -0.351739141   4.156983225
  C    1.097162538   1.908748871   2.084237553
  H    1.470444583   0.171781986   0.866062499
  H    2.468869300   0.270488921   2.291315334
  H   -1.345144078   0.522189494   2.346018201
  H   -0.960392624  -0.602247917   1.046047416
  H   -1.552205162  -1.206597979   2.590662943
  H    2.063807327  -2.116460412   2.689707055
  H    1.029719636  -2.181657645   1.261331212
  H    0.420210098  -2.743557602   2.818503865
  H    1.563844511  -0.412771629   4.546980439
  H    0.139903011   0.622119689   4.427163948
  H   -0.051766153  -1.109066218   4.664740438
  H    0.101498588   2.134280968   1.703715881
  H    1.128285667   2.223700295   3.126364651
  H    1.807841097   2.532213888   1.540307179
