22
charge=0 charge_a=0 charge_b=0 selection_a=1-5 selection_b=6-22 scaling=1.00 benchmark_Eint=-2.834 benchmark_unit=kcal/mol group=Halogens
  C   -0.338924334   1.277512679  -2.218377952
  I    0.770915623  -0.551768745  -1.978584253
  I   -2.182374621   1.294155655  -1.111461669
  I    0.857766450   3.033451670  -1.886217551
  H   -0.622006246   1.309325790  -3.258137857
  C   -0.655632983  -0.796395897   2.171970407
  C    0.571376427  -0.017438538   2.660175872
  C    0.672141717   1.310630267   1.902009498
  C    0.436426131   0.259502711   4.161798656
  C    1.836022477  -0.845459755   2.402385629
  H   -1.571309120  -0.227761792   2.338684181
  H   -0.748734731  -1.746625368   2.699910348
  H   -0.586765202  -1.008395718   1.105396042
  H   -0.225078891   1.914302462   2.041115744
  H    0.795937094   1.140472942   0.833485270
  H    1.527929435   1.893696815   2.245104476
  H   -0.455586135   0.851672367   4.371081343
  H    1.299836205   0.810518393   4.537332168
  H    0.360877495  -0.670951117   4.726391964
  H    1.953891231  -1.052761128   1.338386465
  H    1.793502681  -1.799712558   2.929393238
  H    2.726862592  -0.314558665   2.740996723
