20
charge=0 charge_a=0 charge_b=0 selection_a=1-5 selection_b=6-20 scaling=1.00 benchmark_Eint=-6.446 benchmark_unit=kcal/mol group=Halogens
  C    0.624689675   0.099905150  -0.113571213
  I    1.853422882  -1.088560235  -1.405234410
  I   -1.486380852  -0.180508628  -0.347693248
  H    0.836524508   1.135078986  -0.333776868
  H    0.873730696  -0.167407879   0.901879464
  C    0.642909125  -2.526911020   2.253222264
  C    0.069031107  -3.674068290   1.470313589
  C   -0.185471157  -1.655658749   2.959937352
  C    0.337429159  -0.558362763   3.632742827
  C    1.705565212  -0.314437032   3.612741093
  C    2.544246791  -1.181785547   2.921865159
  C    2.015429809  -2.276901407   2.251243816
  H   -0.882912479  -4.001053750   1.884504227
  H    0.749003430  -4.524367009   1.455341546
  H   -0.107824819  -3.378627258   0.434235815
  H   -1.252030637  -1.831948587   2.971410097
  H   -0.324067971   0.107301531   4.169025307
  H    2.114657772   0.539019392   4.134306328
  H    3.610159292  -1.003715919   2.901808364
  H    2.673554061  -2.940217764   1.707358982
