19
charge=0 charge_a=0 charge_b=0 selection_a=1-5 selection_b=6-19 scaling=1.00 benchmark_Eint=-3.333 benchmark_unit=kcal/mol group=Halogens
  C    0.008203546   0.956880739  -2.409087752
  I    2.126409441   1.206595941  -2.134927475
  I   -0.676569866  -1.013524347  -1.887704245
  I   -1.150854233   2.514670946  -1.482548935
  H   -0.163788883   1.057019142  -3.468724781
  C    1.498932390   1.640011683   1.829288584
  C    1.088870407   0.170917782   1.841363614
  C   -0.404977549  -0.032876516   2.082942157
  C   -0.798060799  -1.503102193   2.183620663
  H    2.564500487   1.756790855   1.632642906
  H    1.281720056   2.113953667   2.787902177
  H    0.960223155   2.191668442   1.058922879
  H    1.652972716  -0.360483739   2.612849582
  H    1.362501271  -0.294692905   0.891223808
  H   -0.965065797   0.443166807   1.274515776
  H   -0.695427163   0.487215733   2.999925538
  H   -0.524868369  -2.042487897   1.276024058
  H   -1.871411018  -1.622678362   2.331170711
  H   -0.290432373  -1.987885812   3.018991206
