22
charge=0 charge_a=0 charge_b=0 selection_a=1-5 selection_b=6-22 scaling=1.00 benchmark_Eint=-2.374 benchmark_unit=kcal/mol group=Halogens
  C   -0.615217172  -0.372392425  -0.530134230
  I   -0.360672999  -2.397985289  -1.214845340
  H   -1.633600632  -0.276676730  -0.177914248
  H   -0.421436626   0.279411601  -1.371678273
  H    0.093834877  -0.213103822   0.271052693
  C   -1.554122928  -1.818000876   2.850147630
  C   -0.263758779  -2.333851268   3.498775868
  C   -0.249511744  -1.950717378   4.982904703
  C   -0.201382981  -3.859482903   3.359159568
  C    0.950184728  -1.710886823   2.798752467
  H   -2.432268016  -2.229878090   3.349133206
  H   -1.602823149  -2.105137463   1.799949542
  H   -1.615170199  -0.730168135   2.911174160
  H   -1.102748996  -2.383751837   5.506715594
  H   -0.294063648  -0.867805476   5.108321789
  H    0.659050570  -2.307029132   5.470225627
  H   -1.054134027  -4.331824770   3.848735944
  H    0.707657138  -4.256712401   3.812838599
  H   -0.210302266  -4.153781069   2.309289471
  H    0.922526007  -0.621735394   2.863588312
  H    0.979678372  -1.992413064   1.746017328
  H    1.880378053  -2.047398752   3.258357719
