9
charge=0 charge_a=0 charge_b=0 selection_a=1-5 selection_b=6-9 scaling=1.00 benchmark_Eint=-2.977 benchmark_unit=kcal/mol group=Halogens
  C    0.057941797   0.790262935  -2.096477537
  I    1.508738569  -0.708300971  -2.587659250
  I   -1.986707253   0.151963793  -2.153544910
  H    0.166413805   1.591412209  -2.811730520
  H    0.260029125   1.099040276  -1.082067287
  C    0.867872706  -0.117974179   1.262385145
  C   -0.280004400   0.183191176   1.409522004
  H    1.883105015  -0.394280721   1.122587854
  H   -1.302397398   0.440955193   1.531603912
