12
charge=0 charge_a=0 charge_b=0 selection_a=1-7 selection_b=8-12 scaling=1.00 benchmark_Eint=-1.589 benchmark_unit=kcal/mol group=Halogens
  C    0.331443381  -0.716135265  -1.896854893
  N   -0.072676298   0.679441825  -1.741512251
  H    0.103831223  -1.369561991  -1.045326524
  H    1.406277929  -0.760309151  -2.065077760
  H   -0.152989361  -1.136483261  -2.777507800
  H    0.397680776   1.114214016  -0.959936502
  H   -1.067995942   0.763124510  -1.588348592
  C    0.585597580  -0.148505134   1.790174373
  F    1.421568263  -1.208842319   1.629822596
  F    1.206785469   0.966622715   1.305265814
  H    0.398275274  -0.005298521   2.853236917
  H   -0.317452496  -0.321379211   1.206722683
