15
charge=0 charge_a=0 charge_b=0 selection_a=1-9 selection_b=10-15 scaling=1.00 benchmark_Eint=-2.656 benchmark_unit=kcal/mol group=Halogens
  N   -1.291757287   0.041718351  -1.505670262
  C   -0.648858401   1.202441692  -1.610324954
  N    0.667268184   1.346936513  -1.739283291
  C    1.349361075   0.204944898  -1.758932170
  N    0.820121161  -1.012478412  -1.662735619
  C   -0.504660860  -1.030518306  -1.539994412
  H   -1.247085342   2.104821758  -1.584076171
  H    2.425829299   0.271363071  -1.857329254
  H   -0.981913417  -1.999206885  -1.455365390
  F    0.956043458  -1.714870761   1.788383328
  C    0.768031897  -0.416278049   1.677086023
  F    1.884405467   0.254376353   1.472452366
  C   -0.419401575   0.154829631   1.759186808
  F   -1.533673738  -0.517469316   1.960383158
  F   -0.610210986   1.454251012   1.645111023
