7
charge=0 charge_a=0 charge_b=0 selection_a=1-2 selection_b=3-7 scaling=1.00 benchmark_Eint=-0.885 benchmark_unit=kcal/mol group=Halogens
  N    1.470357024   0.365611606  -1.228228796
  N    0.456000736   0.756231292  -1.151064254
  C   -1.681594748  -0.314949416   1.421500543
  F   -0.484830543  -1.012231214   1.292347865
  H   -1.842469368   0.271394883   0.518871994
  H   -1.611681476   0.340267386   2.288261495
  H   -2.489991224  -1.031664353   1.556117253
