11
charge=0 charge_a=0 charge_b=0 selection_a=1-5 selection_b=6-11 scaling=1.00 benchmark_Eint=-2.971 benchmark_unit=kcal/mol group=Halogens
  N    1.921809022   0.892342208  -2.489992888
  N    0.839594093   1.192912581  -2.624490008
  C   -0.396193894   1.532148380  -2.773388759
  H   -0.896937972   1.989101004  -1.939498905
  H   -0.860008960   1.338596125  -3.723406524
 Cl   -2.071273364  -0.599091729  -0.157714294
  C   -0.383551484  -0.503198663   0.142866555
 Cl    0.524206583  -1.881798884  -0.321403551
  C    0.184786441   0.574301470   0.698363916
 Cl   -0.726096439   1.967777088   1.132396002
 Cl    1.867134265   0.672518519   1.014806522
