12
charge=0 charge_a=0 charge_b=0 selection_a=1-7 selection_b=8-12 scaling=1.00 benchmark_Eint=-2.954 benchmark_unit=kcal/mol group=Halogens
  N   -2.587688072   0.532279493  -3.884188693
  N   -3.046910570   0.691558754  -2.864104378
  N   -3.580151005   0.737616621  -1.765025905
  C   -3.430837030   2.001521336  -1.027527146
  H   -3.856429464   1.840913090  -0.043597082
  H   -3.970504013   2.811446580  -1.521100626
  H   -2.382335560   2.278544597  -0.918069330
  C   -0.008567021   0.051297546   0.247042804
 Cl    0.157977075   1.739173892   0.800118326
 Cl   -0.059854278   0.017617849  -1.529730075
 Cl   -1.510137839  -0.636838509   0.898777607
 Cl    1.381903817  -0.895474981   0.820890124
