10
charge=0 charge_a=0 charge_b=0 selection_a=1-5 selection_b=6-10 scaling=1.00 benchmark_Eint=-2.619 benchmark_unit=kcal/mol group=Halogens
  N    0.642495750  -0.197966609  -1.411368665
  N   -0.392867974   0.255291854  -1.450913558
  C   -1.574969760   0.770619151  -1.487242467
  H   -2.145920944   0.770303754  -0.576977523
  H   -1.921229157   1.170821892  -2.422716813
  C   -0.084692855  -0.809187506   2.407462051
 Br   -0.246733257   1.114193730   2.168097228
 Br   -1.497503773  -1.767368359   1.474456634
 Br    1.674098363  -1.454159094   1.913806790
  H   -0.215696421  -1.005734779   3.458941556
