12
charge=0 charge_a=0 charge_b=0 selection_a=1-7 selection_b=8-12 scaling=1.00 benchmark_Eint=-3.713 benchmark_unit=kcal/mol group=Halogens
  N   -5.154226244  -0.764059608  -2.442506205
  N   -4.846445831   0.194430383  -1.929211581
  N   -4.567820113   1.180071127  -1.262281275
  C   -3.738619309   2.197922188  -1.925506709
  H   -3.469576389   2.923288022  -1.166331825
  H   -4.292518871   2.699643654  -2.720679297
  H   -2.826668877   1.764235566  -2.336012065
  C   -0.685086421   0.329685833   0.178390967
  I   -1.971149019   1.297921140   1.601536477
  I   -1.669767555  -1.234819657  -0.920124219
  I    0.346237004   1.723998345  -1.100809995
  H    0.085292755  -0.154021414   0.757350071
