11
charge=0 charge_a=0 charge_b=0 selection_a=1-6 selection_b=7-11 scaling=1.00 benchmark_Eint=-3.478 benchmark_unit=kcal/mol group=Halogens
  N   -0.285938567  -0.357415970  -1.095867365
  N    0.487758003   0.735267516  -1.592971754
  H    0.068839527  -1.259136235  -1.391992819
  H   -1.233678898  -0.256989534  -1.429756053
  H    0.923851196   0.522648831  -2.482665550
  H    1.219295960   0.922911793  -0.920405768
  C   -0.101136976  -0.773368694   2.348885814
  I   -0.902945505   1.197454448   2.081346472
  I   -1.405626997  -2.335539186   1.652189067
  I    1.919217302  -0.971991708   1.625951939
  H   -0.030488124  -0.918728981   3.414930983
