11
charge=0 charge_a=0 charge_b=0 selection_a=1-9 selection_b=10-11 scaling=1.00 benchmark_Eint=-3.024 benchmark_unit=kcal/mol group=Halogens
  N   -1.431228587  -0.031820697  -1.945670327
  C   -0.732610143   1.082067001  -1.742005857
  N    0.579913065   1.144506937  -1.535756309
  C    1.196250903  -0.034505420  -1.541056059
  N    0.607492819  -1.212434627  -1.730016665
  C   -0.706578547  -1.147449008  -1.925938881
  H   -1.278926650   2.017383153  -1.743461050
  H    2.265812550  -0.035744453  -1.373800533
  H   -1.231041653  -2.082285901  -2.081862710
  I    1.908479867  -0.253932811   2.232828075
  I   -0.758884478  -0.317367697   1.926877026
