9
charge=0 charge_a=0 charge_b=0 selection_a=1-3 selection_b=4-9 scaling=1.00 benchmark_Eint=-1.725 benchmark_unit=kcal/mol group=Halogens
  O   -0.234007925   1.367642441  -1.888323727
  C   -1.345228005   1.501676618  -1.585848957
  O   -2.455249363   1.637025659  -1.285867603
  F   -0.753281762  -1.294270066  -0.264786293
  C    0.414956788  -1.143846443   0.331000253
  F    1.232514049  -2.155953182   0.131007686
  C    0.725936145  -0.081430235   1.048878874
  F   -0.102563027   0.928822128   1.237171187
  F    1.888160984   0.084011152   1.644421394
