9
charge=0 charge_a=0 charge_b=0 selection_a=1-3 selection_b=4-9 scaling=1.00 benchmark_Eint=-2.499 benchmark_unit=kcal/mol group=Halogens
  O   -1.371217544  -2.227361086  -0.783514761
  C   -2.283238444  -2.081667293  -0.083274743
  O   -3.198107308  -1.942994350   0.613241573
 Cl   -0.023630808  -0.488694190   1.989531131
  C    0.786966418   0.014563310   0.559737927
 Cl    2.412587134  -0.512919330   0.414830513
  C    0.185948155   0.756739985  -0.377462715
 Cl   -1.448018178   1.270082321  -0.231512325
 Cl    0.983914806   1.251316616  -1.812907737
