8
charge=0 charge_a=0 charge_b=0 selection_a=1-3 selection_b=4-8 scaling=1.00 benchmark_Eint=-2.128 benchmark_unit=kcal/mol group=Halogens
  O    0.225213693  -0.119576828  -1.362261434
  C   -0.925499984   0.013846789  -1.382703148
  O   -2.075920916   0.148284178  -1.411588651
  C   -0.058870607  -0.560533098   2.526013689
 Br   -0.751271138   1.197831018   2.021263269
 Br   -1.113301160  -1.948000685   1.637710190
 Br   -0.201479257  -0.779989564   4.460590381
 Br    1.806614424  -0.709087796   1.983150482
