9
charge=0 charge_a=0 charge_b=0 selection_a=1-4 selection_b=5-9 scaling=1.00 benchmark_Eint=-2.175 benchmark_unit=kcal/mol group=Halogens
  C   -0.890338197   0.061267277  -1.314231219
  O    0.168812400  -0.472587921  -1.490857943
  H   -1.052878114   1.130061108  -1.542837575
  H   -1.760811142  -0.485219749  -0.911559798
  C   -0.144768758  -0.651504881   2.660800796
  I   -1.221348100   1.164700931   2.115785614
  I   -1.172302796  -2.376571639   1.831797076
  I   -0.091179150  -0.815825771   4.826464387
  I    1.872582819  -0.555648160   1.880003006
