15
charge=0 charge_a=0 charge_b=0 selection_a=1-10 selection_b=11-15 scaling=1.00 benchmark_Eint=-4.823 benchmark_unit=kcal/mol group=Halogens
  C    0.747670191  -1.339257220  -1.403049250
  O    0.125287835  -0.289100390  -2.120480713
  O   -0.723785239   0.415089935  -1.174859350
  C   -0.226130438   1.738786620  -1.099376849
  H    1.379143527  -1.838312596  -2.136785934
  H    0.012289815  -2.045139058  -1.015041488
  H    1.362346758  -0.956473435  -0.586355462
  H   -0.887250522   2.247735724  -0.399023289
  H   -0.272772631   2.227234387  -2.073060187
  H    0.794286453   1.757092779  -0.714530592
  C   -1.090596311  -0.732251279   1.889221391
  I   -1.030423018  -2.870380121   2.019289933
  I    0.677508842   0.279009080   2.563485490
  H   -1.907401764  -0.396083271   2.509735695
  H   -1.216699569  -0.472854395   0.847827065
