24
charge=0 charge_a=0 charge_b=0 selection_a=1-12 selection_b=13-24 scaling=1.00 benchmark_Eint=-5.424 benchmark_unit=kcal/mol group=Halogens
  F    1.878382848  -1.831158208  -0.388730727
  C    1.146166502  -0.847818563   0.127370723
  C    0.990219418   0.339647765  -0.571366241
  F    1.576043782   0.496606956  -1.755621518
  C    0.215818912   1.360264158  -0.039646619
  F    0.056533318   2.495954660  -0.714681647
  C   -0.402542848   1.191604373   1.190113837
  F   -1.159606648   2.165144656   1.693222069
  C   -0.247092548   0.003828029   1.888720380
  F   -0.851026264  -0.161666223   3.062954854
  C    0.527483784  -1.016522123   1.356744144
  F    0.669377486  -2.160313139   2.021556722
  B   -0.796220066  -2.935668652  -1.864143235
  H   -0.093064350  -3.776969224  -2.323235155
  N   -1.451367908  -3.112957526  -0.608355975
  H   -1.301562434  -3.971139805  -0.106470984
  B   -2.315223409  -2.132657699  -0.036783641
  H   -2.845150847  -2.307038897   1.013898549
  N   -2.501657190  -0.923700082  -0.771746885
  H   -3.112018033  -0.220351232  -0.393031324
  B   -1.866172887  -0.672742578  -2.024538068
  H   -2.027158674   0.352138736  -2.606713005
  N   -1.015724556  -1.696305708  -2.537481562
  H   -0.554025863  -1.540147385  -3.416829516
