28
charge=0 charge_a=0 charge_b=0 selection_a=1-12 selection_b=13-28 scaling=1.00 benchmark_Eint=-4.014 benchmark_unit=kcal/mol group=Halogens
  F   -3.035432206   0.383772077  -1.980837652
  C   -1.721259707   0.205980433  -1.890740284
  C   -0.860598269   1.277954190  -2.080624435
  F   -1.351188005   2.482184806  -2.356232136
  C    0.511118735   1.095762771  -1.976008755
  F    1.334617048   2.122908890  -2.154105653
  C    1.021526611  -0.160390273  -1.683033252
  F    2.336365907  -0.340801725  -1.581137052
  C    0.160908751  -1.230270403  -1.489566119
  F    0.653013474  -2.432570448  -1.187524471
  C   -1.210090906  -1.048680642  -1.593308339
  F   -2.033533985  -2.074560845  -1.390835291
  B    0.721956099   0.133282972   2.935251904
  B    0.006832322  -1.339120823   2.345349284
  B    1.749943074  -1.002955242   2.140076476
  B   -0.899149599   0.207284941   2.010890607
  B    2.144431228   0.647631608   1.794759769
  H    0.768718042   0.305717251   4.100546076
  H   -0.316877011  -2.227163139   3.046626429
  H    2.458624044  -1.706817393   2.764363524
  H   -1.844584936   0.309865243   2.714330931
  H    3.191152820   0.931849860   2.270373036
  H    0.869645904  -1.773680580   1.455751459
  H   -0.892928042  -1.087617932   1.498892137
  H    2.340429736  -0.525319804   1.109040581
  H   -0.954863514   0.712320849   0.932398343
  H    1.711156611   1.320191583   0.920338074
  H    0.189427476   1.076015816   2.316281545
