17
charge=0 charge_a=0 charge_b=0 selection_a=1-5 selection_b=6-17 scaling=1.00 benchmark_Eint=-2.975 benchmark_unit=kcal/mol group=Halogens
  C   -0.623813514   0.256469753  -0.900038055
 Cl    0.279317290   0.984000709   0.444139099
 Cl   -1.721443377  -0.995260040  -0.271093405
 Cl    0.514243370  -0.478661293  -2.052912392
 Cl   -1.574955855   1.512759302  -1.728232335
  B    2.707956030  -1.929033720   0.563340535
  H    3.196237334  -2.164886461  -0.495688749
  N    3.347098139  -1.063824119   1.500939190
  H    4.227509392  -0.649476819   1.248983631
  B    2.789547105  -0.757739573   2.777600993
  H    3.342260452  -0.026704292   3.537655580
  N    1.538769384  -1.361551219   3.102374827
  H    1.125209143  -1.160315773   3.996107080
  B    0.844639591  -2.233526012   2.211060007
  H   -0.201377453  -2.717661078   2.506193885
  N    1.459074905  -2.497382401   0.951658886
  H    0.982001598  -3.097285169   0.301493481
