10
charge=0 charge_a=0 charge_b=0 selection_a=1-2 selection_b=3-10 scaling=1.00 benchmark_Eint=-1.316 benchmark_unit=kcal/mol group=Halogens
 Cl    0.967656089  -1.088084984  -1.770221024
 Cl   -0.297675804   0.462335971  -1.932364047
  B    0.582549373   0.205060459   1.990291441
  H    1.452832567  -0.009345680   2.764461727
  H    0.550895932   1.200410864   1.350151832
  H   -0.571351354   0.043085292   2.590784800
  B   -0.689973315  -0.983989565   1.784559009
  H   -1.558571249  -0.770613873   1.009124415
  H   -0.657006410  -1.980733188   2.423376538
  H    0.462536638  -0.820298945   1.185043699
