17
charge=0 charge_a=0 charge_b=0 selection_a=1-5 selection_b=6-17 scaling=1.00 benchmark_Eint=-2.746 benchmark_unit=kcal/mol group=Halogens
  C   -1.334291006   0.510693602  -0.578585106
 Br   -0.038791821   1.804499880  -1.268474981
  H   -1.625393318   0.837000090   0.410972196
  H   -0.841056343  -0.450987955  -0.539504610
  H   -2.178037494   0.498959765  -1.256419305
  B    1.872401632  -0.195041855   1.128056731
  H    2.733812390   0.531473093   0.753292359
  N    0.989415310   0.173562847   2.188320219
  H    1.097993632   1.082724761   2.603350086
  B   -0.033578964  -0.685710330   2.682887107
  H   -0.757031679  -0.348515785   3.566336896
  N   -0.162125398  -1.967053989   2.065760237
  H   -0.871967870  -2.594029664   2.402564231
  B    0.683671609  -2.401701709   1.001163317
  H    0.554478458  -3.476383950   0.505675328
  N    1.679304085  -1.487191517   0.549262359
  H    2.286013971  -1.768453624  -0.201401705
