17
charge=0 charge_a=0 charge_b=0 selection_a=1-5 selection_b=6-17 scaling=1.00 benchmark_Eint=-3.091 benchmark_unit=kcal/mol group=Halogens
  C   -0.072885591   0.647631607  -2.277321283
 Br    1.409205735  -0.591354439  -2.076625503
 Br   -1.752329385  -0.128775694  -1.686820830
 Br    0.282853837   2.350012692  -1.412854092
  H   -0.173683251   0.846950138  -3.331484155
  B    1.453050294  -1.002158777   1.568741848
  H    2.373612594  -1.722394991   1.343083681
  N    1.640916685   0.389401925   1.818679687
  H    2.574316619   0.760796969   1.790308712
  B    0.559707814   1.282050431   2.080309324
  H    0.745116760   2.441564304   2.275809733
  N   -0.752891219   0.724540731   2.101422239
  H   -1.531574619   1.335722595   2.274878372
  B   -1.011433602  -0.657213562   1.860295949
  H   -2.118832304  -1.093615328   1.875012447
  N    0.114810398  -1.494161399   1.604726021
  H   -0.043224992  -2.469889002   1.423174847
