13
charge=0 charge_a=0 charge_b=0 selection_a=1-5 selection_b=6-13 scaling=1.00 benchmark_Eint=-2.259 benchmark_unit=kcal/mol group=Halogens
  C   -1.453699033   0.474010632  -1.940843005
  I    0.473386902  -0.384320707  -2.375813687
  H   -2.137754867  -0.344891678  -1.763147708
  H   -1.746582959   1.059330128  -2.802341655
  H   -1.338541839   1.090301222  -1.059238046
  B    0.130522840   0.449070339   1.707076475
  H    1.135856053   0.500723069   2.329922525
  H   -0.325977298   1.413613596   1.191580874
  H   -0.792958865  -0.126236886   2.438539697
  B   -0.709405997  -1.076127351   1.537463643
  H   -1.714306430  -1.107510186   0.911097190
  H   -0.267483756  -2.048942350   2.047023767
  H    0.226614667  -0.507849116   0.818612438
