17
charge=0 charge_a=0 charge_b=0 selection_a=1-5 selection_b=6-17 scaling=1.00 benchmark_Eint=-3.712 benchmark_unit=kcal/mol group=Halogens
  C   -0.043190024   0.697372942  -2.541710813
  I    1.605770602  -0.672678286  -2.197729445
  I   -1.885114222  -0.189591029  -1.810242362
  I   -0.224687643   1.093246865  -4.670746005
  I    0.331326374   2.558695193  -1.488269321
  B    1.453213331  -0.988291773   1.566128529
  H    2.380712719  -1.703206033   1.352397910
  N    1.629705733   0.405041501   1.814597288
  H    2.560761605   0.782735630   1.793157557
  B    0.540411417   1.290408566   2.067383843
  H    0.716723077   2.450740190   2.266285803
  N   -0.768610001   0.724200268   2.078917829
  H   -1.552675870   1.330093628   2.246556517
  B   -1.015579765  -0.659751473   1.838094935
  H   -2.119819414  -1.104284032   1.848075364
  N    0.118130857  -1.489491273   1.592082638
  H   -0.031792072  -2.466694419   1.411583504
