19
charge=0 charge_a=0 charge_b=0 selection_a=1-5 selection_b=6-19 scaling=1.00 benchmark_Eint=-2.032 benchmark_unit=kcal/mol group=Halogens
  C   -1.984039618   0.914121338  -3.203078493
  I   -0.939285572   0.216488119  -1.453300903
  H   -2.998399681   0.540430770  -3.150018741
  H   -1.466885106   0.523631722  -4.069931985
  H   -1.962843042   1.996110618  -3.187926768
  B    0.636117567  -0.908505105   1.784475621
  B   -0.123208501   0.452528382   2.431575482
  B    0.398329951  -1.933663752   3.103799366
  B    1.239874100  -0.359483008   3.261687252
  B   -0.964828557  -1.121736040   2.273755279
  H    1.164942073  -1.087217689   0.748018132
  H   -0.297840913   1.531353750   1.994497708
  H    0.704650837  -3.056433431   3.285652289
  H    2.322428146  -0.030286910   3.589133913
  H   -1.916386140  -1.496141815   1.690970939
  H    0.375454630   0.578631791   3.671661338
  H   -1.289559182   0.006969313   2.921131040
  H    0.771975466  -1.221061539   4.177106496
  H   -0.892873356  -1.794086043   3.433575765
