9
charge=0 charge_a=0 charge_b=0 selection_a=1-4 selection_b=5-9 scaling=1.00 benchmark_Eint=-1.357 benchmark_unit=kcal/mol group=Halogens
  P    0.895081891  -1.109510425  -1.081955904
  P    1.096315422   1.077216449  -0.920191360
  P   -0.772183670   0.196922447  -1.683320527
  P    1.060150236   0.118602440  -2.902549384
  C   -1.052540761  -0.055374718   2.485984955
  F   -1.404470152   1.089182540   1.917519313
  F   -1.542647914  -1.066726850   1.783121015
  F   -1.532482499  -0.101593789   3.720610710
  F    0.269656817  -0.142394188   2.522257138
