16
charge=0 charge_a=0 charge_b=0 selection_a=1-11 selection_b=12-16 scaling=1.00 benchmark_Eint=-1.750 benchmark_unit=kcal/mol group=Halogens
  C   -2.481155281   0.932393571  -0.420384133
  C   -1.381433153   1.692095320  -0.803918690
  C   -0.421420907   1.240997271  -1.696470669
  P   -0.422751428  -0.309050936  -2.472397313
  C   -1.872425622  -0.985563444  -1.805113763
  C   -2.712379122  -0.351063441  -0.903066328
  H   -3.183982329   1.356219173   0.283206930
  H   -1.272042261   2.682302492  -0.379058163
  H    0.402652615   1.902473340  -1.933539859
  H   -2.132913206  -1.987080582  -2.124444430
  H   -3.592099694  -0.877016919  -0.552816289
  C    1.152851864  -0.239172883   1.522815804
  F    0.962896315   1.067512024   1.649769068
  F   -0.010813425  -0.841304103   1.338077655
  F    1.721280914  -0.707813146   2.627749386
  F    1.946083314  -0.472502974   0.488319852
