10
charge=0 charge_a=0 charge_b=0 selection_a=1-4 selection_b=5-10 scaling=1.00 benchmark_Eint=-1.669 benchmark_unit=kcal/mol group=Halogens
  P    0.894473044  -0.286069416  -1.692023036
  P   -1.040291853   0.230565265  -2.005746736
  H    1.295084354   1.021123945  -1.292519660
  H   -1.432382211  -1.080141452  -2.400924794
  F   -0.506598506  -1.782977515   1.434096972
  C    0.621236365  -1.136117140   1.639399452
  F    1.667582573  -1.929852911   1.732015418
  C    0.693494965   0.178817674   1.744562355
  F   -0.353326943   0.971123559   1.649258733
  F    1.821946716   0.829666329   1.944048750
