6
charge=0 charge_a=0 charge_b=0 selection_a=1-4 selection_b=5-6 scaling=1.00 benchmark_Eint=-1.493 benchmark_unit=kcal/mol group=Halogens
  P    1.013808923  -0.115156411  -1.995080928
  P   -0.963556176   0.237081912  -1.729261517
  H    1.354400730   1.264488665  -2.091903483
  H   -1.306098881  -1.141328325  -1.628176604
 Cl   -0.798128415  -0.324302101   1.875786421
 Cl    1.180402516  -0.627301652   1.762615254
