13
charge=0 charge_a=0 charge_b=0 selection_a=1-11 selection_b=12-13 scaling=1.00 benchmark_Eint=-2.248 benchmark_unit=kcal/mol group=Halogens
  C   -1.931088297   2.347821823  -1.536204736
  C   -0.588420748   2.652206163  -1.733933319
  C    0.369132207   1.697462626  -2.039368092
  P    0.070535105   0.000116563  -2.220240393
  C   -1.637154540  -0.045332533  -1.925722820
  C   -2.429418532   1.052594786  -1.630895295
  H   -2.615811722   3.150832378  -1.301262598
  H   -0.280983811   3.686854853  -1.642785943
  H    1.391740970   2.027897488  -2.172973297
  H   -2.112695668  -1.017080382  -1.973734161
  H   -3.488188149   0.899787435  -1.461298971
 Cl   -0.547776918   0.907915723   1.521041425
 Cl    0.239504395  -0.929221420   1.714246413
