12
charge=0 charge_a=0 charge_b=0 selection_a=1-6 selection_b=7-12 scaling=1.00 benchmark_Eint=-3.719 benchmark_unit=kcal/mol group=Halogens
  P   -0.829090143  -2.636237855   0.398427400
  P    1.242070285  -3.195950021   1.067343753
  H   -1.166672319  -3.973202676   0.065491462
  H   -0.453167844  -2.333314060  -0.934294260
  H    0.761608331  -3.949242109   2.169836031
  H    1.432491620  -2.036796209   1.858405977
 Cl   -1.961662926   1.285867946   0.398595442
  C   -0.301718559   0.860605171   0.452840911
 Cl    0.406022334   0.863977558   2.016921496
  C    0.394555472   0.548036446  -0.647476568
 Cl   -0.314110377   0.540423339  -2.210721595
 Cl    2.054006903   0.107989390  -0.594915558
