9
charge=0 charge_a=0 charge_b=0 selection_a=1-4 selection_b=5-9 scaling=1.00 benchmark_Eint=-2.706 benchmark_unit=kcal/mol group=Halogens
  P    1.071943124   0.016339477  -1.705668032
  P   -0.946758083  -0.144192265  -1.692035051
  H    1.089875455   1.231551368  -0.965849622
  H   -0.958121404  -1.363474673  -2.428855447
  C    0.024775249  -0.494654730   2.523071003
 Br   -0.573250376   1.281432824   1.976491700
 Br   -1.176242982  -1.848767174   1.790305884
 Br    0.016383182  -0.608980835   4.473225645
 Br    1.837953796  -0.808146326   1.865142840
