9
charge=0 charge_a=0 charge_b=0 selection_a=1-4 selection_b=5-9 scaling=1.00 benchmark_Eint=-3.056 benchmark_unit=kcal/mol group=Halogens
  P    0.743530814   0.435313636  -1.524849443
  P   -1.098844293  -0.410652027  -1.528341856
  H    0.271998558   1.718240235  -1.126600438
  H   -0.633514873  -1.697446243  -1.915860372
  C   -0.389449858  -0.327150994   2.137916596
 Br   -0.421914970  -2.248881247   1.865253155
 Br    1.392146010   0.441783533   2.065334895
  H   -0.794241346  -0.123932722   3.117680824
  H   -0.966441301   0.118969937   1.340635603
