9
charge=0 charge_a=0 charge_b=0 selection_a=1-4 selection_b=5-9 scaling=1.00 benchmark_Eint=-3.744 benchmark_unit=kcal/mol group=Halogens
  P    0.676680570   0.523652129  -1.437662046
  P   -1.065065522  -0.517918768  -1.433064082
  H    0.078063853   1.735922894  -0.991779999
  H   -0.473978889  -1.734170069  -1.872371115
  C   -0.439169525  -0.320107770   2.210059666
  I   -0.552009616  -2.434458303   1.890987952
  I    1.535580846   0.505425133   2.179196703
  H   -0.862475340  -0.111900686   3.181034829
  H   -0.990861917   0.146755140   1.406336288
