24
charge=0 charge_a=0 charge_b=0 selection_a=1-12 selection_b=13-24 scaling=1.00 benchmark_Eint=-7.180 benchmark_unit=kcal/mol group=Halogens
  S    0.929875222  -1.318579054  -1.563638976
  C   -0.490926267  -1.501253993  -2.676469039
  S   -1.853859897  -0.326328866  -2.447522974
  C   -0.985967255   1.202919667  -2.893240210
  S    0.375857380   1.706127926  -1.805823709
  C    1.502589723   0.315922821  -2.102826176
  H   -0.903299661  -2.487989195  -2.485359865
  H   -0.150002464  -1.465764012  -3.710431020
  H   -1.724586866   1.998127751  -2.845258320
  H   -0.625097240   1.130641069  -3.918476976
  H    2.403694971   0.526518436  -1.533707215
  H    1.764498750   0.279262720  -3.159534578
  F   -3.153981999  -1.708137219   0.768769266
  C   -2.204795586  -0.824213240   1.073071952
  C   -0.952744073  -1.261977011   1.469439961
  F   -0.697111915  -2.567136459   1.546638720
  C    0.044932922  -0.342268746   1.755224640
  F    1.258685202  -0.764315784   2.106642548
  C   -0.211100950   1.013633560   1.644111151
  F    0.756126896   1.896366752   1.888919466
  C   -1.465252186   1.452104230   1.246937788
  F   -1.702212574   2.755948261   1.110130746
  C   -2.461304650   0.533991202   0.961759114
  F   -3.656811043   0.954284896   0.550854164
