14
charge=0 charge_a=0 charge_b=0 selection_a=1-9 selection_b=10-14 scaling=1.00 benchmark_Eint=-3.268 benchmark_unit=kcal/mol group=Halogens
  C   -1.077451610   1.406812777  -0.640388790
  C   -1.672495227   0.262644721  -0.041067910
  C   -1.295426068  -0.900858249  -0.646578692
  S   -0.212494881  -0.611933838  -1.948971545
  C   -0.260618966   1.085640889  -1.686031921
  H   -1.246802533   2.418681678  -0.307553877
  H   -2.343533220   0.303802041   0.802135228
  H   -1.594395890  -1.905157377  -0.402451872
  H    0.309708175   1.747816143  -2.313463885
  C    1.463633491  -0.208359923   1.466077854
  F    2.812314347  -0.146678595   1.666151426
  F    0.844874689   0.282390925   2.578758447
  H    1.176795333  -1.250242194   1.339290440
  H    1.203188892   0.416605999   0.615783902
