21
charge=0 charge_a=0 charge_b=0 selection_a=1-9 selection_b=10-21 scaling=1.00 benchmark_Eint=-4.920 benchmark_unit=kcal/mol group=Halogens
  C   -3.269587739   0.430312573  -1.346580205
  S   -2.304405747  -1.101464501  -1.312556691
  C   -2.980263762  -1.847511331   0.192588408
  H   -2.928933795   1.007147938  -2.202848334
  H   -3.110308434   1.014835214  -0.442238737
  H   -4.330974736   0.219553656  -1.462136678
  H   -2.449228929  -2.782089418   0.355621465
  H   -4.041724543  -2.059383242   0.079733856
  H   -2.827061737  -1.200420134   1.054361450
  F    1.564529869  -2.140680980   0.718519873
  C    1.035608973  -0.942376552   0.480803106
  C    1.388020969  -0.242366245  -0.662962976
  F    2.257980892  -0.766490824  -1.522192862
  C    0.824515512   0.998769762  -0.916902258
  F    1.150369944   1.665186235  -2.022185385
  C   -0.089943467   1.539862850  -0.026714781
  F   -0.648359456   2.722601934  -0.280932858
  C   -0.441836098   0.839725321   1.116236852
  F   -1.344285992   1.346945902   1.957011740
  C    0.121303900  -0.400586685   1.370750320
  F   -0.233598360  -1.081815958   2.459580599
