8
charge=0 charge_a=0 charge_b=0 selection_a=1-3 selection_b=4-8 scaling=1.00 benchmark_Eint=-1.461 benchmark_unit=kcal/mol group=Halogens
  S    0.072032235   1.016865484  -1.502003755
  C   -0.497275860   0.055901520  -0.424413421
  S   -1.060475853  -0.905745994   0.654470704
  C    2.882639242  -0.522772094   0.638282669
  F    2.285536422   0.388927349   1.501304564
  H    2.187637949  -1.341741772   0.461521084
  H    3.795025202  -0.895452986   1.100876278
  H    3.112075021  -0.018087621  -0.298271861
