14
charge=0 charge_a=0 charge_b=0 selection_a=1-9 selection_b=10-14 scaling=1.00 benchmark_Eint=-2.928 benchmark_unit=kcal/mol group=Halogens
  C   -1.045162971   1.820042419  -1.285633959
  C   -2.215583618   1.206107682  -1.808237252
  C   -1.963791754  -0.018350127  -2.356703308
  S   -0.300836596  -0.429436551  -2.239469391
  C    0.068147445   1.048940900  -1.449521848
  H   -1.033460777   2.782318997  -0.798981169
  H   -3.197463983   1.651702268  -1.775066553
  H   -2.658999390  -0.695504315  -2.820915403
  H    1.074702696   1.258803737  -1.134895106
  C   -0.054207447  -0.319163151   2.178663986
 Cl    0.184045317   1.434797764   2.346133183
 Cl   -1.568217922  -0.687858682   1.339609965
 Cl    1.335851747  -1.077192764   1.371601112
  H   -0.115145039  -0.732880177   3.173962887
