18
charge=0 charge_a=0 charge_b=0 selection_a=1-12 selection_b=13-18 scaling=1.00 benchmark_Eint=-5.323 benchmark_unit=kcal/mol group=Halogens
  S    0.967609627  -1.371145171  -1.616173044
  C   -0.737208194  -1.393691554  -2.233950947
  S   -1.837372429  -0.104736691  -1.588326552
  C   -1.010385078   1.348961485  -2.288924610
  S    0.661081764   1.690530174  -1.674343477
  C    1.499112639   0.215526151  -2.314736411
  H   -1.162493278  -2.342453489  -1.918768159
  H   -0.734173869  -1.363060868  -3.322960268
  H   -1.617811423   2.206407932  -2.013511602
  H   -0.993761480   1.274465990  -3.375725831
  H    2.548742000   0.325023315  -2.057242825
  H    1.412732739   0.186523281  -3.400394852
 Cl    1.669543271   0.332772427   1.790248231
  C   -0.029808706   0.099930661   1.809315807
 Cl   -0.968782858   1.535487299   1.813033027
  C   -0.584360974  -1.117057928   1.845217882
 Cl    0.351278505  -2.556661966   1.865914390
 Cl   -2.284180030  -1.355094280   1.891295693
