14
charge=0 charge_a=0 charge_b=0 selection_a=1-8 selection_b=9-14 scaling=1.00 benchmark_Eint=-4.739 benchmark_unit=kcal/mol group=Halogens
  C   -0.860301052   1.937782891  -2.682592768
  S    0.394561002   2.333068240  -1.407159839
  C   -1.002857285   3.079942372  -0.486103180
  S   -2.215757269   2.834803468  -1.837172345
  H   -1.050705366   0.871558396  -2.763893248
  H   -0.618957742   2.356491173  -3.654348032
  H   -0.839750245   4.126717643  -0.250401388
  H   -1.256210962   2.521809398   0.410145391
 Cl   -0.182324345   0.350329908   2.355008703
  C    0.485725431  -0.481050826   1.007062073
 Cl    2.175835546  -0.759105448   1.082394435
  C   -0.257877273  -0.852141710  -0.040056356
 Cl   -1.941333750  -0.533990243  -0.134371429
 Cl    0.413881829  -1.641857847  -1.408081582
