12
charge=0 charge_a=0 charge_b=0 selection_a=1-10 selection_b=11-12 scaling=1.00 benchmark_Eint=-2.640 benchmark_unit=kcal/mol group=Halogens
  C    1.120111248   1.024871045  -3.822945379
  S    1.057471667   0.520824536  -2.073965302
  S   -0.163286141  -1.122216275  -2.097859950
  C   -1.831523375  -0.404429458  -1.984796178
  H    1.800866913   1.874007532  -3.870423859
  H    0.139587629   1.333880369  -4.174498773
  H    1.504097263   0.215947816  -4.437340756
  H   -2.520085122  -1.245916533  -1.923133883
  H   -2.063523637   0.185234533  -2.867274559
  H   -1.919812874   0.202042168  -1.088552668
 Br   -0.158385008   0.264200355   1.522904006
 Br   -1.473848129  -1.624042180   1.722685398
