11
charge=0 charge_a=0 charge_b=0 selection_a=1-6 selection_b=7-11 scaling=1.00 benchmark_Eint=-5.006 benchmark_unit=kcal/mol group=Halogens
  S    1.903594792  -2.633978350  -1.620082511
  S   -0.139472841  -2.876524178  -1.886867187
  S   -0.940760451  -1.371888094  -0.697728221
  S   -0.531857984   0.349737594  -1.783933041
  S    1.514969545   0.586981996  -1.528605631
  S    2.312779544  -0.920647714  -2.716205332
  C    0.135367123   1.091491032   1.929161863
 Br    0.667919654   2.815438903   1.209711665
 Br   -1.789390106   0.856261043   2.044152000
  H    0.533953031   1.017637295   2.929504518
  H    0.519956769   0.327718396   1.268566990
