15
charge=0 charge_a=0 charge_b=0 selection_a=1-10 selection_b=11-15 scaling=1.00 benchmark_Eint=-4.033 benchmark_unit=kcal/mol group=Halogens
  C   -1.841554680   1.148284004  -1.377034071
  C   -1.161002257  -0.149187575  -1.686348612
  S    0.404174744  -0.233170170  -2.122774607
  C   -2.025800501  -1.364441114  -1.553932760
  H   -1.178502838   1.995023365  -1.516871094
  H   -2.193528829   1.132436700  -0.342783259
  H   -2.725741640   1.266970115  -2.008238327
  H   -2.910245021  -1.265160006  -2.188138945
  H   -2.384181080  -1.440906971  -0.524609569
  H   -1.490769383  -2.270819174  -1.815422575
  C    1.368292952  -0.561148881   1.324695467
  I   -0.596249783  -0.468968632   2.206144361
  H    1.371567014  -1.401117154   0.643566461
  H    2.075260184  -0.690763890   2.133491365
  H    1.522772021   0.369211499   0.795473739
