13
charge=0 charge_a=0 charge_b=0 selection_a=1-8 selection_b=9-13 scaling=1.00 benchmark_Eint=-5.821 benchmark_unit=kcal/mol group=Halogens
  C   -0.883719327  -1.259354043  -1.873206186
  S    0.011295355   0.259283649  -1.381681905
  C   -1.623942020   1.076406481  -1.466724159
  S   -2.505534276  -0.424232333  -2.037192611
  H   -0.876618910  -2.011199471  -1.088565138
  H   -0.529569342  -1.677837373  -2.809818289
  H   -1.658682867   1.884975990  -2.189771725
  H   -1.962923870   1.416863175  -0.491968389
  C   -0.055675782  -0.452487831   2.607689824
  I    0.407152423   1.645774069   2.275059111
  I   -1.987685241  -0.914427770   1.728226384
  I   -0.112270088  -0.839400029   4.744139844
  I    1.471561261  -1.703512363   1.696754140
