15
charge=0 charge_a=0 charge_b=0 selection_a=1-10 selection_b=11-15 scaling=1.00 benchmark_Eint=-4.005 benchmark_unit=kcal/mol group=Halogens
  C   -2.890580786   1.317184456  -3.448113398
  C   -2.345828481  -0.041003556  -3.766998337
  S   -0.769442848  -0.306362121  -4.056459168
  C   -3.364211935  -1.139942022  -3.785485680
  H   -2.131478850   2.086079656  -3.536443405
  H   -3.278738852   1.318416959  -2.426017560
  H   -3.732874621   1.551208420  -4.103582623
  H   -4.088259572  -0.955073990  -4.583643209
  H   -3.928965635  -1.142270729  -2.850041874
  H   -2.905815559  -2.111215566  -3.935618503
  C   -0.150968025  -0.056266198   0.208299753
  I   -0.154808702   1.975064689  -0.554867517
  I   -2.146175909  -0.907810997   0.018907378
  I    0.414089908  -0.038550051   2.306820611
  I    1.259974982  -1.261650999  -0.911170740
