14
charge=0 charge_a=0 charge_b=0 selection_a=1-9 selection_b=10-14 scaling=1.00 benchmark_Eint=-4.239 benchmark_unit=kcal/mol group=Halogens
  C   -1.408462771   2.123405062  -1.661412003
  C   -2.129380027   0.953606123  -2.029490547
  C   -1.376554947  -0.179264385  -1.923996360
  S    0.211242712   0.169809443  -1.373918681
  C   -0.125801058   1.850340780  -1.285338213
  H   -1.825626416   3.118215062  -1.671419988
  H   -3.158754237   0.954977433  -2.352227986
  H   -1.668905557  -1.194976510  -2.122766487
  H    0.630618409   2.536505371  -0.948228871
  C   -0.126210830  -0.794548368   2.415893736
  I    1.727254277   0.293439316   2.276462321
  I   -1.842529478   0.399254336   1.929028612
  I   -0.077856288  -2.673632562   1.364891040
  H   -0.227201573  -1.053066707   3.457569535
