10
charge=0 charge_a=0 charge_b=0 selection_a=1-5 selection_b=6-10 scaling=1.00 benchmark_Eint=-0.984 benchmark_unit=kcal/mol group=Halogens
  C   -0.016963864   0.501535315  -1.860942837
  F    1.016075376  -0.284607426  -1.521441840
  F   -1.153666364  -0.123090112  -1.517119780
  F    0.069430167   1.643966597  -1.174964864
  H   -0.004575378   0.696884042  -2.931768189
  C   -0.183716411  -1.587949893   1.404967636
  F   -0.067547842  -0.219326960   1.619757865
  H   -1.108431058  -1.778689780   0.863595928
  H   -0.198934006  -2.092196029   2.370008691
  H    0.668749298  -1.922064003   0.816586869
