10
charge=0 charge_a=0 charge_b=0 selection_a=1-5 selection_b=6-10 scaling=1.00 benchmark_Eint=-1.335 benchmark_unit=kcal/mol group=Halogens
  C   -0.990197216  -0.011623007  -2.385217396
  F    0.156127357   0.630102097  -2.021169009
  F   -0.815302730  -1.347587536  -2.192091461
  H   -1.167921151   0.168765016  -3.444556823
  H   -1.799718606   0.331810291  -1.743300286
  C    0.388496410   0.232124121   1.332752691
  F    1.111610610  -0.726697772   0.780986684
  F    0.910604107   1.413187319   1.041200641
  F    0.370266637   0.071242129   2.650311513
  F   -0.856677226   0.173059844   0.870950276
