11
charge=0 charge_a=0 charge_b=0 selection_a=1-6 selection_b=7-11 scaling=1.00 benchmark_Eint=-3.245 benchmark_unit=kcal/mol group=Halogens
  F    1.119140678  -1.387625948  -2.985379770
  C    0.030223410  -0.659965711  -3.127759909
  F   -1.060397341  -1.384295626  -3.279702933
  C    0.030223412   0.659965708  -3.127759911
  F    1.119140682   1.387625937  -2.985379778
  F   -1.060397333   1.384295634  -3.279702939
  C   -0.007325672  -0.000000004   0.947384863
 Br   -0.914998664   1.593889801   0.273482880
 Br   -0.914998692  -1.593889811   0.273482887
 Br   -0.050838381  -0.000000019   2.898474652
 Br    1.844924011   0.000000039   0.331861229
