10
charge=0 charge_a=0 charge_b=0 selection_a=1-5 selection_b=6-10 scaling=1.00 benchmark_Eint=-1.664 benchmark_unit=kcal/mol group=Halogens
  C    0.138176544   0.893005091  -2.716544487
  I    2.120547768   0.009020661  -2.635475421
  I   -1.328413107  -0.551610544  -2.020270235
  I   -0.320072264   1.456931031  -4.764054760
  I    0.076647014   2.656128022  -1.449252374
  C    0.096969976  -0.440033001   1.925192192
  F    1.074018686  -0.228868297   1.056444495
  F   -0.813079849   0.516104116   1.813122355
  F    0.592777163  -0.434234687   3.156156851
  F   -0.464889822  -1.616542800   1.683648186
