11
charge=0 charge_a=0 charge_b=0 selection_a=1-5 selection_b=6-11 scaling=1.00 benchmark_Eint=-3.976 benchmark_unit=kcal/mol group=Halogens
  C    0.550281996  -0.746122076  -2.418491434
 Cl    2.116949139  -1.127485921  -1.677340733
 Cl   -0.755176658  -1.692701712  -1.678084348
 Cl    0.205210744   0.991994897  -2.326369210
  H    0.604386251  -1.017490108  -3.462147570
 Cl   -1.373106554   2.340128201   0.771529485
  C   -1.000988253   0.727571247   1.227902411
 Cl   -2.355310679  -0.311738130   1.408375096
  C    0.254460785   0.313478676   1.439358020
 Cl    1.605970625   1.358171937   1.273178077
 Cl    0.623680840  -1.294413820   1.912385041
