10
charge=0 charge_a=0 charge_b=0 selection_a=1-5 selection_b=6-10 scaling=1.00 benchmark_Eint=-2.951 benchmark_unit=kcal/mol group=Halogens
  C   -0.021265654   0.614261997  -2.299488257
 Cl    1.348792664  -0.509592573  -2.157237928
 Cl   -1.538412492  -0.256844254  -1.983658508
 Cl   -0.060426547   1.295991503  -3.943603096
 Cl    0.164894530   1.929210670  -1.117745088
  C    0.085493362  -1.243328504   2.180633938
 Br    1.749522821  -0.282102773   1.835474652
 Br   -1.422252139  -0.012858425   2.023186525
 Br    0.128735831  -1.992120730   3.985179394
 Br   -0.114005750  -2.687521127   0.882023886
