10
charge=0 charge_a=0 charge_b=0 selection_a=1-5 selection_b=6-10 scaling=1.00 benchmark_Eint=-2.519 benchmark_unit=kcal/mol group=Halogens
  C   -1.783467172   0.048557720  -1.700551381
 Br    0.144989859  -0.250673346  -1.828294690
  H   -1.946367541   1.117535188  -1.652694545
  H   -2.127106213  -0.439125930  -0.797721046
  H   -2.241716506  -0.379967435  -2.582664771
  C   -0.091400714  -0.570050177   2.465983632
 Br   -0.884762549   1.123633975   1.897284674
 Br   -1.056533756  -2.054026755   1.636003867
 Br   -0.225267074  -0.722894138   4.409931242
 Br    1.781958860  -0.627975248   1.935310256
