10
charge=0 charge_a=0 charge_b=0 selection_a=1-5 selection_b=6-10 scaling=1.00 benchmark_Eint=-3.726 benchmark_unit=kcal/mol group=Halogens
  C   -0.023379356   0.817364916  -2.453468093
  I    1.725674816  -0.433978231  -2.488279359
  I   -1.837711053  -0.282745821  -2.101201346
  I    0.189303536   2.524674199  -1.162782324
  H   -0.114739621   1.216632761  -3.450601234
  C    0.404799840  -1.041562931   2.189377379
 Br    2.005687769  -0.015480774   1.749727982
 Br   -1.159383999   0.121728750   2.094801746
 Br    0.570644624  -1.765639243   3.997975123
 Br    0.202466393  -2.507751300   0.917266781
