10
charge=0 charge_a=0 charge_b=0 selection_a=1-5 selection_b=6-10 scaling=1.00 benchmark_Eint=-2.156 benchmark_unit=kcal/mol group=Halogens
  C   -0.032983098   1.151237810  -2.490360698
  I    1.844885152   0.360888527  -1.821492812
  I   -1.740534917   0.613181422  -1.310016725
  H   -0.201820897   0.774528490  -3.487810396
  H    0.045078099   2.227788972  -2.473979834
  C    0.618961403   1.422280763   1.917215399
 Br    0.529096854  -0.504197117   2.243314802
  H   -0.321472321   1.718674220   1.470779999
  H    1.441974092   1.596932229   1.236285388
  H    0.779360591   1.910076545   2.870201547
