7
charge=0 charge_a=0 charge_b=0 selection_a=1-2 selection_b=3-7 scaling=1.00 benchmark_Eint=-3.034 benchmark_unit=kcal/mol group=Halogens
  I    1.133665856  -1.101637977  -1.699433036
  I   -1.008285619   0.518109699  -1.592585587
  C   -0.405325597  -0.441666427   2.169425686
 Br    1.027937381   0.867083645   2.129529716
 Br   -2.159211310   0.323736106   2.505335361
  H   -0.193775656  -1.135965433   2.968392921
  H   -0.437662746  -0.917988640   1.201030659
