18
charge=0 charge_a=0 charge_b=0 selection_a=1 selection_b=2-18 scaling=1.00 benchmark_Eint=-0.205 benchmark_unit=kcal/mol group=NobleGases
 He   -0.099303957   0.302821798  -1.254846965
  C    2.822194098  -0.136613419   1.853303958
  C    1.428224177  -0.757622844   1.865443591
  C    0.323872849   0.255872435   2.153937507
  C   -1.075966336  -0.352629939   2.165697114
  C   -2.170990345   0.670656378   2.453324831
  H    3.591201134  -0.881045989   1.647432675
  H    3.054426188   0.323978317   2.814734270
  H    2.898551075   0.639773693   1.090543971
  H    1.388549501  -1.553938056   2.613449156
  H    1.232706085  -1.237110409   0.902720548
  H    0.363646395   1.055190148   1.407632396
  H    0.517043994   0.734975872   3.118781516
  H   -1.114250241  -1.149764212   2.912893744
  H   -1.266946154  -0.832087292   1.202060555
  H   -2.020195859   1.143288036   3.425078916
  H   -3.158970398   0.210433934   2.457720884
  H   -2.175962625   1.461095707   1.701261422
