11
charge=0 charge_a=0 charge_b=0 selection_a=1 selection_b=2-11 scaling=1.00 benchmark_Eint=-0.135 benchmark_unit=kcal/mol group=NobleGases
 He    0.162012945  -1.316839064  -3.685934052
  C   -1.256632669  -1.071703819  -0.494049174
  C   -0.212389633  -0.254156461  -0.357308364
  C    0.140122176   0.418817901   0.879411719
  C    1.184613587   1.236155903   1.016106205
  H   -1.481952347  -1.552117069  -1.434528541
  H   -1.917773616  -1.283381641   0.336279331
  H    0.431000297  -0.062993079  -1.209562657
  H   -0.503231582   0.227640248   1.731826280
  H    1.845724297   1.447818439   0.185743291
  H    1.410256167   1.716427122   1.956702570
