18
charge=0 charge_a=0 charge_b=0 selection_a=1 selection_b=2-18 scaling=1.00 benchmark_Eint=-0.111 benchmark_unit=kcal/mol group=NobleGases
 He   -0.040873924   0.042444354  -1.635803027
  C    0.080151996   0.936345339   2.552272039
  C    0.414307248  -0.549164310   2.732834307
  C    1.688652199  -0.885190039   1.949184245
  C    0.635940093  -0.846111886   4.220621531
  C   -0.747485387  -1.401735090   2.209053685
  H    0.891975701   1.567028411   2.917135854
  H   -0.824036902   1.203464225   3.100940056
  H   -0.083127152   1.175607110   1.500679341
  H    2.532877876  -0.291408242   2.302227405
  H    1.558438234  -0.683026831   0.885289961
  H    1.950007026  -1.938396327   2.060535828
  H    1.458899593  -0.251716667   4.619835062
  H    0.875789432  -1.898576154   4.377886374
  H   -0.257201707  -0.615411800   4.802873645
  H   -0.927222456  -1.210047240   1.150431377
  H   -1.668751132  -1.182334763   2.750416043
  H   -0.535631957  -2.465436551   2.325693749
