16
charge=0 charge_a=0 charge_b=0 selection_a=1 selection_b=2-16 scaling=1.00 benchmark_Eint=-0.303 benchmark_unit=kcal/mol group=NobleGases
 Ne    1.094989438   2.464681707  -2.028649188
  C   -0.086442131   0.414105460   0.431239679
  C   -0.689579494  -0.424743588   1.571073140
  C    0.616617021  -0.603241264  -0.508582560
  C   -0.988553715  -1.773384292   0.910830403
  C    0.241966759  -2.005949962   0.025694538
  H   -0.882299183   0.930501885  -0.105914435
  H    0.594604765   1.180176922   0.797851509
  H    0.047096005  -0.565401740   2.365344873
  H   -1.565921075   0.041020814   2.020117730
  H    0.272972277  -0.475257356  -1.534076361
  H    1.696001305  -0.461615509  -0.521450032
  H   -1.157555340  -2.576970842   1.626741019
  H   -1.885831759  -1.690841961   0.292352920
  H    0.062639148  -2.724364536  -0.772783147
  H    1.054830336  -2.402420040   0.636562843
