18
charge=0 charge_a=0 charge_b=0 selection_a=1 selection_b=2-18 scaling=1.00 benchmark_Eint=-0.262 benchmark_unit=kcal/mol group=NobleGases
 Ne   -0.019442950   1.558752327  -2.807972849
  C    0.357558134  -1.579591551  -0.466462796
  C    0.255132450  -0.625645760   0.729602339
  C   -1.087463139   0.113347281   0.680748682
  C    0.349297267  -1.428185252   2.032647051
  C    1.401176355   0.391388675   0.672227564
  H   -0.447527275  -2.315451812  -0.449636348
  H    1.305253703  -2.119680674  -0.455798190
  H    0.293358945  -1.034288199  -1.408799801
  H   -1.921660290  -0.588441242   0.720102554
  H   -1.181477094   0.694211589  -0.237493440
  H   -1.187067127   0.799476003   1.522918900
  H   -0.456181007  -2.160717562   2.100121220
  H    0.279540746  -0.772597436   2.901716371
  H    1.296665501  -1.965525777   2.093571537
  H    1.359405276   0.977006903  -0.246893822
  H    2.369925432  -0.108869999   0.706997502
  H    1.351603172   1.084102517   1.513425605
