19
charge=0 charge_a=0 charge_b=0 selection_a=1-18 selection_b=19 scaling=1.00 benchmark_Eint=-0.786 benchmark_unit=kcal/mol group=NobleGases
  C    0.740716293  -1.285938952  -2.322672190
  C   -0.725002972  -1.274576159  -2.762569744
  C   -1.450014154  -0.022700920  -2.263427739
  C   -0.725467320   1.253537193  -2.697212113
  C    0.740163937   1.242676813  -2.257044692
  C    1.464678142  -0.009367458  -2.756406401
  H    1.249012382  -2.163733699  -2.725273511
  H    0.786998307  -1.371291460  -1.233223254
  H   -1.233214629  -2.172594401  -2.407233904
  H   -0.770582936  -1.302246414  -3.855633811
  H   -1.502777681  -0.050987981  -1.171330218
  H   -2.479869019  -0.013589109  -2.624395215
  H   -1.234065337   2.131847072  -2.296113534
  H   -0.770858712   1.337548273  -3.787404377
  H    0.786173168   1.271532144  -1.164603041
  H    1.248197349   2.140357911  -2.613475557
  H    2.495090682  -0.018484084  -2.397019355
  H    1.515775309   0.019070596  -3.849210209
 Ar    0.035207984  -0.137744438   1.613073283
