19
charge=0 charge_a=0 charge_b=0 selection_a=1-18 selection_b=19 scaling=1.00 benchmark_Eint=-1.496 benchmark_unit=kcal/mol group=NobleGases
  C   -0.681692839   1.206494090  -1.713470788
  C   -1.402414157  -0.006009973  -1.744379244
  C   -0.738953439  -1.203955129  -1.750500241
  C    0.674572581  -1.250226526  -1.722792018
  C    1.390034510  -2.470466343  -1.713491708
  C    2.758922759  -2.481397642  -1.672931641
  C    3.479665479  -1.268860661  -1.641763008
  C    2.816535571  -0.070627177  -1.651934659
  C    1.403289915  -0.024280502  -1.691425500
  C    0.687468428   1.195780951  -1.689238091
  H   -1.216776265   2.145488295  -1.707936148
  H   -2.482804028   0.015553540  -1.762228668
  H   -1.289440363  -2.134871914  -1.772145733
  H    0.835235877  -3.398828697  -1.735882206
  H    3.293657239  -3.420553374  -1.663986175
  H    4.559702643  -1.290601727  -1.609223292
  H    3.366933368   0.860289823  -1.626628774
  H    1.242129516   2.124109572  -1.663403054
 Ar    0.497731507  -0.399477463   1.754710309
