16
charge=0 charge_a=0 charge_b=0 selection_a=1 selection_b=2-16 scaling=1.00 benchmark_Eint=-1.359 benchmark_unit=kcal/mol group=NobleGases
 Kr   -0.555802899   0.173250724  -1.773086974
  C    2.816372457   0.449110014   0.440270394
  C    2.342415897   0.284108961   1.887669090
  C    2.768836776  -0.978649796  -0.139906805
  C    1.212020075  -0.742971936   1.765230616
  C    1.720258190  -1.748055160   0.710857991
  H    2.118641179   1.094963951  -0.095890956
  H    3.803100889   0.903011705   0.359660444
  H    3.150992670  -0.121907748   2.500703622
  H    2.023656419   1.220334979   2.344598967
  H    2.516586113  -0.976101575  -1.198814132
  H    3.745938222  -1.452767546  -0.051002076
  H    0.959714251  -1.218907920   2.711796124
  H    0.310455024  -0.244863062   1.404078670
  H    0.906323732  -2.138564888   0.102662070
  H    2.185871506  -2.603816168   1.198743678
