7
charge=0 charge_a=0 charge_b=0 selection_a=1 selection_b=2-7 scaling=1.00 benchmark_Eint=-0.821 benchmark_unit=kcal/mol group=NobleGases
 Xe   -0.056284597   0.647648846  -2.164638446
  C    0.172783554  -0.114070879   1.897663994
  C   -0.960552247  -0.742663145   1.627782579
  H    0.596902620  -0.107656755   2.892721369
  H    0.721930898   0.419417662   1.133777335
  H   -1.510731830  -1.276630551   2.390797764
  H   -1.383524405  -0.748345102   0.632432413
