13
charge=0 charge_a=0 charge_b=0 selection_a=1 selection_b=2-13 scaling=1.00 benchmark_Eint=-1.874 benchmark_unit=kcal/mol group=NobleGases
 Xe    0.067831358  -0.162184002  -1.659913391
  C   -0.065683862  -2.256745220   1.778804234
  C    0.601403184  -1.119141692   2.217529196
  C    1.920983258  -0.898746538   1.841002595
  C    2.573451685  -1.815936861   1.025725492
  C    1.906354673  -2.953522973   0.586997721
  C    0.586794161  -3.173931012   0.963550245
  H   -1.092902753  -2.426576143   2.069097022
  H    0.093016282  -0.404233055   2.848989384
  H    2.438804505  -0.012479953   2.179660956
  H    3.598687909  -1.642942233   0.730336524
  H    2.412786648  -3.665242723  -0.049609059
  H    0.067003472  -4.057075677   0.619804884
