9
charge=0 charge_a=0 charge_b=0 selection_a=1-8 selection_b=9 scaling=1.00 benchmark_Eint=-0.299 benchmark_unit=kcal/mol group=NobleGases
  N   -0.940241639   0.369190070   0.383065047
  C    0.186924301   1.082964447   0.206042357
  N    1.052196633   0.379386457  -0.492699650
  C    0.386434162  -0.785469231  -0.722034804
  N   -0.827897879  -0.840452843  -0.210054696
  H   -1.784662898   0.615691360   0.868216903
  H    0.328022309   2.077851561   0.591354831
  H    0.805688602  -1.606729756  -1.276297332
 He    0.869752873  -1.059277136   2.501343124
