5
charge=0 charge_a=0 charge_b=0 selection_a=1-4 selection_b=5 scaling=1.00 benchmark_Eint=-0.010 benchmark_unit=kcal/mol group=NobleGases
  N   -0.370848709   0.127753630  -0.937201327
  H    0.370884052  -0.199403989  -1.543101140
  H   -0.566302931   1.087058964  -1.193803314
  H   -0.004447041   0.138530924   0.006158085
 He    1.356760340  -0.711102588   3.992313744
