8
charge=0 charge_a=0 charge_b=0 selection_a=1-7 selection_b=8 scaling=1.00 benchmark_Eint=-0.121 benchmark_unit=kcal/mol group=NobleGases
  C    0.336108695  -0.719362923  -0.272682540
  N   -0.129006955   0.651391756  -0.482220808
  H    0.465594001  -1.010555094   0.776423418
  H    1.291187146  -0.855296451  -0.778738804
  H   -0.371287689  -1.411683378  -0.727744399
  H    0.518146430   1.317220242  -0.082055421
  H   -1.021505803   0.802433098  -0.031882187
 He   -0.908993203   0.216738379   2.861033662
