7
charge=0 charge_a=0 charge_b=0 selection_a=1-6 selection_b=7 scaling=1.00 benchmark_Eint=-0.645 benchmark_unit=kcal/mol group=NobleGases
  N   -0.673782309  -0.382715316  -1.648022878
  N    0.399472793   0.560837158  -1.578786285
  H   -0.433656182  -1.201612153  -2.194900853
  H   -1.460443604   0.072268191  -2.088725252
  H    0.995364086   0.528300476  -2.398019238
  H    0.960915335   0.334630251  -0.770174010
 Ar    0.222421321  -0.498659225   1.930862749
