7
charge=0 charge_a=0 charge_b=0 selection_a=1-6 selection_b=7 scaling=1.00 benchmark_Eint=-0.784 benchmark_unit=kcal/mol group=NobleGases
  N   -0.710035502  -0.311324924  -1.633309684
  N    0.393818284   0.598623339  -1.632190997
  H   -0.457214719  -1.225268004  -1.991282762
  H   -1.430264887   0.073258836  -2.227784495
  H    1.062366174   0.395165642  -2.366286508
  H    0.865753869   0.513566029  -0.743091176
 Kr    0.269423158  -0.656471661   1.982852154
