23
charge=0 charge_a=0 charge_b=0 selection_a=1-22 selection_b=23 scaling=1.00 benchmark_Eint=-0.220 benchmark_unit=kcal/mol group=NobleGases
  C    2.167637427   0.555198756   0.262879467
  C    1.227468626  -0.623260622   0.081660095
  C    1.919905767  -1.969814595   0.149350394
  O    0.222690590  -0.679253735   1.094608934
  O   -0.574599714   0.529289808   1.006787834
  C   -1.224306791   0.541602925  -0.264490446
  C   -1.916472120   1.888332409  -0.331807981
  C   -2.164636729  -0.636709014  -0.445892406
  O   -0.219564903   0.597527194  -1.277479749
  O    0.577719925  -0.611148104  -1.189636221
  H    2.654865429   0.481702835   1.232654327
  H    1.631571986   1.495302475   0.210174467
  H    2.923568778   0.536488984  -0.519199100
  H    2.401043303  -2.081300320   1.118058457
  H    2.674816358  -2.028698415  -0.631002685
  H    1.198448752  -2.770890684   0.012349563
  H   -2.671088922   1.947268636   0.448830977
  H   -2.397923061   2.000146281  -1.300319907
  H   -1.194758085   2.689192742  -0.194893150
  H   -2.921775670  -0.617072974   0.335014789
  H   -1.628923826  -1.576929160  -0.391465243
  H   -2.650534143  -0.563869808  -1.416482492
 He    0.938698723   1.261664335   3.606384289
