11
charge=0 charge_a=0 charge_b=0 selection_a=1-10 selection_b=11 scaling=1.00 benchmark_Eint=-0.205 benchmark_unit=kcal/mol group=NobleGases
  C   -1.941110281  -1.282863435  -1.510212226
  C   -1.169335457   0.010823442  -1.645835841
  O    0.019334273   0.024044674  -1.861186046
  C   -1.967364435   1.287075942  -1.497576649
  H   -1.266740959  -2.130734264  -1.580513747
  H   -2.695412347  -1.348341310  -2.296455726
  H   -2.473810201  -1.309483723  -0.558526051
  H   -2.408053920   1.335401231  -0.500198056
  H   -2.794435842   1.302197959  -2.209082550
  H   -1.327629981   2.149765017  -1.656077511
 He   -0.544535508  -0.375767927   1.473570242
