5
charge=0 charge_a=0 charge_b=0 selection_a=1-4 selection_b=5 scaling=1.00 benchmark_Eint=-0.239 benchmark_unit=kcal/mol group=NobleGases
  C   -0.618239698  -0.736900302  -1.181640028
  O    0.573091702  -0.610904654  -1.207224789
  H   -1.225681473  -0.385425740  -0.327668480
  H   -1.174666074  -1.211432882  -2.010703271
 Ne    0.252445951   0.965342521   1.679543040
