10
charge=0 charge_a=0 charge_b=0 selection_a=1-9 selection_b=10 scaling=1.00 benchmark_Eint=-1.056 benchmark_unit=kcal/mol group=NobleGases
  C   -1.156963552  -0.611293738  -1.937404805
  O    0.154261610  -0.113747492  -1.797862535
  C    0.215930924   1.288890716  -1.920610922
  H   -1.110395988  -1.691345668  -1.822350322
  H   -1.571913308  -0.373482525  -2.923834819
  H   -1.824551602  -0.199118033  -1.171914837
  H    1.255844199   1.581950484  -1.799777401
  H   -0.386563916   1.784293457  -1.150449901
  H   -0.137792946   1.620247861  -2.903911449
 Kr   -0.193022088   0.090318430   1.754345503
