10
charge=0 charge_a=0 charge_b=0 selection_a=1 selection_b=2-10 scaling=1.00 benchmark_Eint=-0.661 benchmark_unit=kcal/mol group=NobleGases
 Xe    3.554342967   0.781336145  -0.063629200
  C   -0.427634595  -2.651982885   1.558423815
  O   -1.343950912  -2.904815343   0.496301663
  C    0.690590400  -1.704214008   1.160130870
  H   -1.746870843  -2.074073430   0.231918199
  H   -0.957202073  -2.268707204   2.437155213
  H   -0.022497458  -3.627376981   1.824152902
  H    0.296853474  -0.720624884   0.897174578
  H    1.236407622  -2.092063989   0.301208483
  H    1.393114387  -1.568900060   1.983503935
