17
charge=0 charge_a=0 charge_b=0 selection_a=1 selection_b=2-17 scaling=1.00 benchmark_Eint=-0.206 benchmark_unit=kcal/mol group=NobleGases
 He   -0.621723140  -0.344768724  -1.212251022
  B    1.671548246   0.586569828   2.455017868
  B    0.233762414  -0.391696332   2.393168221
  B    1.737614238  -0.893113669   1.570065225
  B    0.019530857   1.401406663   2.124065565
  B    2.649034239   0.389491529   0.844377327
  H    2.216173686   0.718847772   3.492417507
  H   -0.154663568  -1.034673623   3.299691648
  H    2.251875068  -1.847674596   2.031202216
  H   -0.447806975   1.915514016   3.081891151
  H    3.807078891   0.144077375   0.898298344
  H    0.427433593  -1.169181727   1.352515762
  H   -0.710231544   0.249357184   1.854219963
  H    2.039904151  -0.730779019   0.334490251
  H   -0.220921159   1.883439367   1.059840872
  H    2.267432116   1.193808969   0.061796613
  H    1.395981975   1.667885710   1.894060057
