13
charge=0 charge_a=0 charge_b=0 selection_a=1 selection_b=2-13 scaling=1.00 benchmark_Eint=-0.066 benchmark_unit=kcal/mol group=NobleGases
 He   -1.094403806   1.504488514  -4.274988498
  B    0.570585453   0.748792655  -0.844679058
  H    0.987202846   1.428829942  -1.728217100
  N   -0.407855666   1.236276246   0.072411331
  H   -0.745223827   2.176454667  -0.040145182
  B   -0.928780973   0.448560332   1.142063498
  H   -1.745030734   0.881812171   1.892406038
  N   -0.428353141  -0.881318122   1.272851661
  H   -0.780331912  -1.455665412   2.018950924
  B    0.549352973  -1.432221808   0.391549400
  H    0.948746781  -2.545652544   0.524711441
  N    1.027332557  -0.589867975  -0.656323508
  H    1.716472342  -0.955770614  -1.290069311
