17
charge=0 charge_a=0 charge_b=0 selection_a=1 selection_b=2-17 scaling=1.00 benchmark_Eint=-0.428 benchmark_unit=kcal/mol group=NobleGases
 Ne   -0.502956222  -0.317365628  -1.268203527
  B    1.550099259   0.761928812   2.471427775
  B    0.307322585  -0.452944259   2.383880802
  B    1.871936249  -0.659149241   1.547651168
  B   -0.221859508   1.280687957   2.164907010
  B    2.537724458   0.783059582   0.855304822
  H    2.068426122   0.961214540   3.511572058
  H    0.042411938  -1.177982803   3.272818362
  H    2.549041151  -1.519291107   1.983560641
  H   -0.766587547   1.676760038   3.137818214
  H    3.721257470   0.746735845   0.901922450
  H    0.630101919  -1.156411209   1.322837456
  H   -0.737173813   0.025980334   1.861757077
  H    2.135595136  -0.414350257   0.316922431
  H   -0.550441795   1.742801445   1.115548110
  H    2.014777793   1.525973690   0.094018913
  H    1.084711816   1.791479790   1.939180838
