9
charge=0 charge_a=0 charge_b=0 selection_a=1 selection_b=2-9 scaling=1.00 benchmark_Eint=-0.220 benchmark_unit=kcal/mol group=NobleGases
 Ne   -0.076746474  -0.096005832   2.030005620
  B    0.020237889  -0.879354614  -1.618096931
  H   -0.570776408  -1.425913165  -2.486582909
  H    0.587998747  -1.485756984  -0.774352792
  H   -0.767556281   0.002787288  -1.053352710
  B    0.055023541   0.875962884  -1.581225294
  H    0.645643667   1.423442621  -0.713225345
  H   -0.513148275   1.481519007  -2.425483453
  H    0.843518672  -0.006199396  -2.145122743
