15
charge=0 charge_a=0 charge_b=0 selection_a=1 selection_b=2-15 scaling=1.00 benchmark_Eint=-0.317 benchmark_unit=kcal/mol group=NobleGases
 Ne   -0.146570211   0.000000062  -3.090066156
  B   -0.791039393  -0.000000018   0.571382169
  B    0.607102286  -0.895325998   0.266945014
  B   -0.190506412   0.895381650   1.870316135
  B   -0.190506403  -0.895381642   1.870316148
  B    0.607102285   0.895325982   0.266945016
  H   -1.844392996  -0.000000044   0.046539679
  H    0.846668438  -1.721969545  -0.537110470
  H   -0.686810466   1.722192720   2.546787693
  H   -0.686810452  -1.722192682   2.546787730
  H    0.846668444   1.721969526  -0.537110473
  H    1.004124360  -1.351226495   1.464460100
  H    1.606014705  -0.000000008   0.254418996
  H    0.402349138   0.000000008   2.674403121
  H    1.004124387   1.351226484   1.464460098
