9
charge=0 charge_a=0 charge_b=0 selection_a=1-8 selection_b=9 scaling=1.00 benchmark_Eint=-0.543 benchmark_unit=kcal/mol group=NobleGases
  B    0.050426053  -0.875064341  -2.379740803
  H   -0.642583417  -1.464198498  -3.138022309
  H    0.764449295  -1.439117836  -1.622268936
  H   -0.678023733  -0.011527896  -1.715950819
  B    0.017807382   0.880263048  -2.377367055
  H    0.710446354   1.468333212  -1.618316866
  H   -0.696583868   1.445317146  -3.134130023
  H    0.745978795   0.016716684  -3.042195097
 Ar   -0.031481575  -0.000923886   1.516136996
