13
charge=0 charge_a=0 charge_b=0 selection_a=1-12 selection_b=13 scaling=1.00 benchmark_Eint=-1.004 benchmark_unit=kcal/mol group=NobleGases
  B    1.502391631   0.380442052  -1.870629620
  H    2.679866180   0.552190966  -1.841053650
  N    0.942620391  -0.929774433  -1.945169314
  H    1.566344345  -1.717540643  -1.972887197
  B   -0.463019696  -1.171784660  -1.979032546
  H   -0.901978910  -2.276585855  -2.038644630
  N   -1.319467069  -0.031522833  -1.936178698
  H   -2.313867395  -0.176763473  -1.957355227
  B   -0.827409373   1.305572416  -1.861311981
  H   -1.566085137   2.238192261  -1.823938465
  N    0.588820530   1.475589578  -1.831001777
  H    0.959442726   2.408386389  -1.777056330
 Ar    0.008454568   0.004161605   1.631161159
