15
charge=0 charge_a=0 charge_b=0 selection_a=1 selection_b=2-15 scaling=1.00 benchmark_Eint=-1.232 benchmark_unit=kcal/mol group=NobleGases
 Xe    0.039649009   0.091171612  -2.127351645
  B   -0.236998336  -1.436795599   1.761230361
  B    0.551362179   0.045691014   1.930070641
  B   -1.276805517  -1.275521715   3.081109680
  B    0.501480914  -1.159445766   3.253570192
  B   -1.227301981  -0.070391244   1.757578377
  H   -0.104233842  -2.301751212   0.974466534
  H    1.411615014   0.548289122   1.302458627
  H   -2.105235605  -1.990590149   3.516850513
  H    1.316280011  -1.767299177   3.848637603
  H   -2.008985465   0.325154210   0.970784376
  H    0.878696900   0.128083251   3.227856817
  H   -0.425306731   0.949861006   2.097399589
  H   -0.500502552  -0.870045334   4.097288443
  H   -1.804631519  -0.047065303   2.967737329
