7
charge=0 charge_a=0 charge_b=0 selection_a=1-6 selection_b=7 scaling=1.00 benchmark_Eint=-0.302 benchmark_unit=kcal/mol group=NobleGases
  P   -1.223854944  -0.351125628   0.615385938
  P    0.882204527  -1.060245328   0.270172039
  H   -1.803385835  -1.477226236  -0.024934298
  H   -1.266096971   0.421829767  -0.573698126
  H    0.878492379  -1.907687024   1.408538346
  H    1.468626176   0.009829663   0.994295553
 Ne    0.966825952   2.384766445  -0.944763889
