5
charge=0 charge_a=0 charge_b=0 selection_a=1-4 selection_b=5 scaling=1.00 benchmark_Eint=-0.169 benchmark_unit=kcal/mol group=NobleGases
  P    0.319430767  -0.566636853  -0.480978168
  P   -1.382272798   0.244227741  -1.225537118
  H    0.956380816   0.690806851  -0.278233477
  H   -2.019482159  -1.013401968  -1.428010684
 Ne    1.710138008   0.518807887   2.761089297
