7
charge=0 charge_a=0 charge_b=0 selection_a=1-6 selection_b=7 scaling=1.00 benchmark_Eint=-1.098 benchmark_unit=kcal/mol group=NobleGases
  P   -2.590107659  -0.893082157   1.176716983
  P   -0.599345913  -0.442171971   2.120241959
  H   -2.591542992   0.258431152   0.349068274
  H   -3.314064007  -0.232794618   2.202936269
  H    0.112137835  -1.404529378   1.359566276
  H   -0.811444874  -1.351836172   3.188279117
 Kr   -0.042541522  -0.265865231  -1.838688673
