11
charge=0 charge_a=0 charge_b=0 selection_a=1-10 selection_b=11 scaling=1.00 benchmark_Eint=-0.388 benchmark_unit=kcal/mol group=NobleGases
  C   -2.342413273   1.235528722  -1.700814296
  C   -1.549095301  -0.010542369  -1.957382155
  S    0.015538448   0.023260584  -2.394283367
  C   -2.309678907  -1.290207482  -1.778965833
  H   -1.745745552   2.129392580  -1.845983273
  H   -2.734753555   1.222331530  -0.680713566
  H   -3.211009055   1.266518269  -2.363765052
  H   -3.174101375  -1.304972319  -2.447938077
  H   -2.706920896  -1.347735264  -0.762334857
  H   -1.688668019  -2.157781848  -1.973228997
 Ne   -1.106059967  -0.123160900   1.400515243
