10
charge=0 charge_a=0 charge_b=0 selection_a=1-9 selection_b=10 scaling=1.00 benchmark_Eint=-1.167 benchmark_unit=kcal/mol group=NobleGases
  C   -1.399069417   1.195070031  -0.604855751
  C   -2.163757979   0.004765673  -0.463828043
  C   -1.530602058  -1.088481777  -0.979587794
  S    0.000089999  -0.675503421  -1.639773532
  C   -0.202767565   0.978483551  -1.224532252
  H   -1.722491325   2.164806997  -0.260397684
  H   -3.136588569  -0.036426420   0.000445078
  H   -1.875891305  -2.106978037  -1.006190856
  H    0.565965949   1.694288963  -1.456650058
 Ar    0.477342566  -0.528563658   2.190139199
