13
charge=0 charge_a=0 charge_b=0 selection_a=1 selection_b=2-13 scaling=1.00 benchmark_Eint=-1.505 benchmark_unit=kcal/mol group=NobleGases
 Xe   -0.007218583   0.103663244  -2.094467152
  S   -1.083681292  -1.867503074   1.517519403
  C    0.616015099  -2.078144558   2.115495416
  S    1.801069653  -0.788887552   1.641837201
  C    1.065564584   0.606201303   2.538267266
  S   -0.580619299   1.136391253   1.990636871
  C   -1.512166304  -0.357697202   2.427367172
  H    0.980999750  -3.004088825   1.680157285
  H    0.610175336  -2.187501599   3.199526790
  H    1.727504983   1.453307069   2.382239340
  H    1.040435320   0.382076940   3.604221568
  H   -2.552990167  -0.147309563   2.198198332
  H   -1.426693605  -0.540674885   3.498038309
