10
charge=0 charge_a=0 charge_b=0 selection_a=1 selection_b=2-10 scaling=1.00 benchmark_Eint=-1.127 benchmark_unit=kcal/mol group=NobleGases
 Xe    0.121048802   0.231372174  -1.852790678
  C    0.025770786   1.440166919   3.814484511
  S   -0.015907363   0.947783012   2.072205430
  C    0.868524957  -0.627660193   2.191311822
  H   -0.482819820   2.398205700   3.889842244
  H    1.050662451   1.556670349   4.162789105
  H   -0.493982728   0.714810331   4.438171226
  H    0.913121436  -1.047873903   1.189861695
  H    0.340865129  -1.322432895   2.842489818
  H    1.882988122  -0.478765816   2.557226414
