7
charge=0 charge_a=0 charge_b=0 selection_a=1 selection_b=2-7 scaling=1.00 benchmark_Eint=-1.586 benchmark_unit=kcal/mol group=NobleGases
 Xe   -0.032370933   0.092788410  -2.004945547
  S   -1.567541822  -1.186000444   1.672451879
  S   -0.046619523  -2.452123773   2.299361042
  S    1.642426754  -1.612586286   1.432352395
  S    1.953584097   0.088263913   2.581179721
  S    0.433549232   1.355581590   1.954525355
  S   -1.255029441   0.514703851   2.821130899
