6
charge=0 charge_a=0 charge_b=0 selection_a=1 selection_b=2-6 scaling=1.00 benchmark_Eint=-0.123 benchmark_unit=kcal/mol group=NobleGases
 He    0.834387586   1.542576471  -2.782535222
  C   -0.043422590   0.451518816   0.338097575
  F   -1.133070698  -0.363837961   0.290558285
  F    1.008108281  -0.198132407  -0.233128301
  H    0.196250625   0.653695947   1.381374171
  H   -0.254344529   1.350195620  -0.240146597
