13
charge=0 charge_a=0 charge_b=0 selection_a=1 selection_b=2-13 scaling=1.00 benchmark_Eint=-1.680 benchmark_unit=kcal/mol group=NobleGases
 Kr    0.085301608  -0.174513433  -1.897830929
  F   -0.486901210   3.160911452   1.045155506
  C   -0.147806768   1.903717684   1.318576701
  C   -1.132394957   0.956658094   1.560684494
  F   -2.415668439   1.305635158   1.519502468
  C   -0.779018742  -0.355773866   1.839302933
  F   -1.723377595  -1.265304346   2.065605622
  C    0.558954504  -0.721123291   1.875800444
  F    0.897657204  -1.980976563   2.137234361
  C    1.543547006   0.225941976   1.633670274
  F    2.826421646  -0.125719505   1.662823097
  C    1.190160852   1.538374690   1.355063290
  F    2.134141001   2.445222826   1.116753787
