6
charge=0 charge_a=0 charge_b=0 selection_a=1 selection_b=2-6 scaling=1.00 benchmark_Eint=-0.083 benchmark_unit=kcal/mol group=NobleGases
 He    0.497433863   0.211693845  -3.662342846
  C   -0.515034403   0.083261377   1.468286390
 Cl    0.164796205  -0.063760439  -0.185552977
  H    0.272097050  -0.134183989   2.181124186
  H   -1.326596465  -0.628412255   1.567705920
  H   -0.878206098   1.096231536   1.598652075
