6
charge=0 charge_a=0 charge_b=0 selection_a=1 selection_b=2-6 scaling=1.00 benchmark_Eint=-0.366 benchmark_unit=kcal/mol group=NobleGases
 Ne    0.123565794   0.419527935  -1.390264755
  C   -0.368343129  -0.022883131   2.433748725
 Cl   -1.856389163  -0.485042209   1.575907382
 Cl    0.973643966  -1.057644218   1.893275512
 Cl   -0.606013164  -0.226873717   4.184860701
 Cl    0.015310906   1.677938488   2.081866352
