6
charge=0 charge_a=0 charge_b=0 selection_a=1-5 selection_b=6 scaling=1.00 benchmark_Eint=-0.954 benchmark_unit=kcal/mol group=NobleGases
  C    0.022203705   0.787344697  -2.321532323
 Cl    1.502811778  -0.104661021  -1.902494748
 Cl   -1.398296253  -0.122386353  -1.757556262
 Cl   -0.067273164   0.991182388  -4.086507266
 Cl    0.051458780   2.385442929  -1.541324049
 Ar    0.214307023   0.317527305   1.745355779
