6
charge=0 charge_a=0 charge_b=0 selection_a=1-5 selection_b=6 scaling=1.00 benchmark_Eint=-0.946 benchmark_unit=kcal/mol group=NobleGases
  C    0.016808027   0.783534646  -2.117143352
 Cl    1.520931470  -0.166313306  -2.074232269
 Cl   -1.439501236  -0.218175919  -1.911720922
  H   -0.044615938   1.270237985  -3.080853797
  H    0.048897251   1.496688425  -1.305043028
 Ar    0.222671127   0.510628277   1.545752741
