6
charge=0 charge_a=0 charge_b=0 selection_a=1 selection_b=2-6 scaling=1.00 benchmark_Eint=-1.403 benchmark_unit=kcal/mol group=NobleGases
 Xe    0.010139697  -0.098045699  -2.040512766
  C   -0.460618130  -0.907928905   1.800596968
 Cl    1.168166125  -0.207503099   1.949729925
 Cl   -1.737839169   0.327347134   1.707787358
  H   -0.645434371  -1.516408483   2.675216383
  H   -0.491546999  -1.488484575   0.888696091
