6
charge=0 charge_a=0 charge_b=0 selection_a=1 selection_b=2-6 scaling=1.00 benchmark_Eint=-0.113 benchmark_unit=kcal/mol group=NobleGases
 He    3.468378428  -1.067569025  -2.920162698
  C   -0.306758267  -0.517453513   0.849884176
 Br    1.015928404  -0.723418980  -0.558545555
 Br   -1.716024161   0.752285435   0.427318959
  H    0.205180836  -0.156808263   1.729172032
  H   -0.770125501  -1.479721897   1.006799076
