6
charge=0 charge_a=0 charge_b=0 selection_a=1 selection_b=2-6 scaling=1.00 benchmark_Eint=-0.373 benchmark_unit=kcal/mol group=NobleGases
 Ne    0.113912444   0.408395308  -1.280146162
  C   -0.363927566   0.047453673   2.518161302
 Br   -2.027339917  -0.505057789   1.680732463
 Br    1.116603310  -1.106376638   2.017844565
 Br    0.030376922   1.919177831   2.179441820
  H   -0.498093084  -0.057556024   3.582348501
