6
charge=0 charge_a=0 charge_b=0 selection_a=1 selection_b=2-6 scaling=1.00 benchmark_Eint=-0.213 benchmark_unit=kcal/mol group=NobleGases
 Ne    1.910870285  -1.235626320  -2.449018717
  C   -1.820477283   0.949153357   0.850559525
 Br   -0.484026426   0.140817617  -0.329069744
  H   -2.442243870   1.597521959   0.246562756
  H   -1.291434226   1.510050931   1.610361313
  H   -2.400289625   0.146704630   1.288362555
