6
charge=0 charge_a=0 charge_b=0 selection_a=1 selection_b=2-6 scaling=1.00 benchmark_Eint=-0.395 benchmark_unit=kcal/mol group=NobleGases
 Ne   -0.087818552  -0.562993095  -1.131977036
  C   -0.429413466  -0.441993073   2.278786431
 Br    1.379197242   0.268316151   2.271848361
 Br   -1.799118595   0.888096927   1.917505310
  H   -0.617896271  -0.846748247   3.261571211
  H   -0.489067648  -1.191087546   1.504016546
