6
charge=0 charge_a=0 charge_b=0 selection_a=1-5 selection_b=6 scaling=1.00 benchmark_Eint=-1.056 benchmark_unit=kcal/mol group=NobleGases
  C    0.023095106   0.858511779  -2.471776630
 Br    1.646113362  -0.121936106  -2.003750684
 Br   -1.540775138  -0.142291808  -1.865560103
 Br   -0.062417279   1.087361360  -4.409915422
 Br    0.049290437   2.611369234  -1.610604223
 Ar    0.209654394   0.363816086   1.706973678
