6
charge=0 charge_a=0 charge_b=0 selection_a=1-5 selection_b=6 scaling=1.00 benchmark_Eint=-0.723 benchmark_unit=kcal/mol group=NobleGases
  C   -1.566087215  -0.071824938  -0.430077890
 Br    0.193151451   0.201242853  -1.242885257
  H   -1.738064130   0.743200886   0.261034205
  H   -1.544972001  -1.023240195   0.085483570
  H   -2.298849801  -0.072688506  -1.226765815
 Ar    0.318577339  -0.233951554   2.751417412
