6
charge=0 charge_a=0 charge_b=0 selection_a=1 selection_b=2-6 scaling=1.00 benchmark_Eint=-1.303 benchmark_unit=kcal/mol group=NobleGases
 Kr    0.115865039   0.402035576  -1.687144677
  C   -0.363574243   0.050379441   2.503163320
 Br   -2.038008032  -0.511928983   1.694663141
 Br    1.109468323  -1.113417441   2.003637047
 Br    0.029356710   1.916539826   2.133418948
  H   -0.485341680  -0.038706094   3.570208382
