6
charge=0 charge_a=0 charge_b=0 selection_a=1 selection_b=2-6 scaling=1.00 benchmark_Eint=-0.926 benchmark_unit=kcal/mol group=NobleGases
 Kr   -2.595178821   2.976946210  -2.253143703
  C    0.661165589  -0.730626397   0.582231072
 Br    2.235955677   0.194195145   1.275915815
 Br   -0.463458746   0.536786810  -0.388687210
 Br   -0.351386601  -1.495282169   2.067614044
 Br    1.224734791  -2.159388731  -0.625024196
