6
charge=0 charge_a=0 charge_b=0 selection_a=1 selection_b=2-6 scaling=1.00 benchmark_Eint=-1.571 benchmark_unit=kcal/mol group=NobleGases
 Xe    0.229392318   0.667540861  -1.917249155
  C   -0.329655910  -0.205435086   1.918126181
 Br   -2.144540659  -0.648253969   1.385350816
 Br    0.950818029  -1.633362019   1.609540944
  H   -0.340440300   0.001759467   2.977437701
  H   -0.016554550   0.644773248   1.331099956
