6
charge=0 charge_a=0 charge_b=0 selection_a=1 selection_b=2-6 scaling=1.00 benchmark_Eint=-1.642 benchmark_unit=kcal/mol group=NobleGases
 Xe    0.022200390  -0.242770275  -2.025949635
  C   -0.542318666  -0.904421944   2.381735384
 Br    1.248329326  -0.195976318   2.055919580
 Br   -1.874945784   0.371145741   1.740083741
 Br   -0.788534682  -1.192966686   4.297929431
 Br   -0.754672136  -2.600299082   1.436574109
