6
charge=0 charge_a=0 charge_b=0 selection_a=1-5 selection_b=6 scaling=1.00 benchmark_Eint=-0.067 benchmark_unit=kcal/mol group=NobleGases
  C    0.098127395  -0.033967805  -0.679812429
  I    2.015280306  -0.825911816  -0.110313660
  I   -1.545553663  -1.183762441   0.096679222
  I   -0.090156026   2.070637104  -0.277011663
  H    0.045945326  -0.133622512  -1.752287008
 He   -4.123019123  -0.804237220   3.338225282
