6
charge=0 charge_a=0 charge_b=0 selection_a=1 selection_b=2-6 scaling=1.00 benchmark_Eint=-0.378 benchmark_unit=kcal/mol group=NobleGases
 Ne   -0.012040607  -0.357320333  -1.402162871
  C   -0.561960666  -1.011999371   2.460797884
  I    1.436252169  -0.237154037   2.276952008
  I   -2.068263784   0.412851192   1.888180518
  I   -0.810224163  -2.922564674   1.504245834
  H   -0.711727136  -1.189645132   3.513781592
