6
charge=0 charge_a=0 charge_b=0 selection_a=1 selection_b=2-6 scaling=1.00 benchmark_Eint=-1.427 benchmark_unit=kcal/mol group=NobleGases
 Kr   -0.084025208  -0.571766625  -1.443879493
  C   -0.462243543  -0.511886312   2.380571653
  I    1.536883638   0.260472772   2.416098829
  I   -2.008437312   0.935856137   2.052947018
  H   -0.647732678  -0.969490946   3.340503729
  H   -0.515505206  -1.226116554   1.572896674
