6
charge=0 charge_a=0 charge_b=0 selection_a=1 selection_b=2-6 scaling=1.00 benchmark_Eint=-1.898 benchmark_unit=kcal/mol group=NobleGases
 Xe    0.003465505  -0.306900529  -1.928936662
  C   -0.553958084  -1.043513240   2.411925529
  I    1.441217783  -0.265874527   2.206849420
  I   -2.071061046   0.379177268   1.862459894
  I   -0.812109360  -2.956227985   1.462007325
  H   -0.690057951  -1.221483180   3.466541926
