8
charge=0 charge_a=0 charge_b=0 selection_a=1-4 selection_b=5-8 scaling=0.8 benchmark_Eint=0.676 benchmark_unit=kcal/mol group=XH-N
  P    1.201269535  -0.204173999  -0.693599141
  H    0.007111355  -0.041005705   0.052498122
  H    1.148472001  -1.620791091  -0.659628284
  H    2.042957921  -0.122447272   0.444639236
  N   -1.852484271   0.365517973   1.002274242
  H   -2.604912122   0.569041568   0.356568911
  H   -2.127290560  -0.448422035   1.537474935
  H   -1.792053057   1.142936705   1.647606948
