8
charge=0 charge_a=0 charge_b=0 selection_a=1-4 selection_b=5-8 scaling=1.25 benchmark_Eint=-0.768 benchmark_unit=kcal/mol group=XH-N
  P    1.201269535  -0.204173999  -0.693599141
  H    0.007111355  -0.041005705   0.052498122
  H    1.148472001  -1.620791091  -0.659628284
  H    2.042957921  -0.122447272   0.444639236
  N   -2.898506810   0.594187542   1.536523310
  H   -3.650934661   0.797711138   0.890817978
  H   -3.173313099  -0.219752466   2.071724002
  H   -2.838075596   1.371606274   2.181856016
