8
charge=0 charge_a=0 charge_b=0 selection_a=1-4 selection_b=5-8 scaling=0.85 benchmark_Eint=-0.219 benchmark_unit=kcal/mol group=XH-N
  P    1.201269535  -0.204173999  -0.693599141
  H    0.007111355  -0.041005705   0.052498122
  H    1.148472001  -1.620791091  -0.659628284
  H    2.042957921  -0.122447272   0.444639236
  N   -1.968708997   0.390925703   1.061635250
  H   -2.721136848   0.594449298   0.415929918
  H   -2.243515286  -0.423014305   1.596835942
  H   -1.908277783   1.168344435   1.706967956
