8
charge=0 charge_a=0 charge_b=0 selection_a=1-4 selection_b=5-8 scaling=1.05 benchmark_Eint=-1.085 benchmark_unit=kcal/mol group=XH-N
  P    1.201269535  -0.204173999  -0.693599141
  H    0.007111355  -0.041005705   0.052498122
  H    1.148472001  -1.620791091  -0.659628284
  H    2.042957921  -0.122447272   0.444639236
  N   -2.433607904   0.492556623   1.299079280
  H   -3.186035755   0.696080218   0.653373948
  H   -2.708414193  -0.321383385   1.834279972
  H   -2.373176690   1.269975355   1.944411986
