8
charge=0 charge_a=0 charge_b=0 selection_a=1-4 selection_b=5-8 scaling=1.5 benchmark_Eint=-0.404 benchmark_unit=kcal/mol group=XH-N
  P    1.201269535  -0.204173999  -0.693599141
  H    0.007111355  -0.041005705   0.052498122
  H    1.148472001  -1.620791091  -0.659628284
  H    2.042957921  -0.122447272   0.444639236
  N   -3.479630443   0.721226192   1.833328347
  H   -4.232058294   0.924749787   1.187623016
  H   -3.754436732  -0.092713816   2.368529040
  H   -3.419199229   1.498644924   2.478661053
