8
charge=0 charge_a=0 charge_b=0 selection_a=1-4 selection_b=5-8 scaling=0.9 benchmark_Eint=-0.726 benchmark_unit=kcal/mol group=XH-N
  P    1.201269535  -0.204173999  -0.693599141
  H    0.007111355  -0.041005705   0.052498122
  H    1.148472001  -1.620791091  -0.659628284
  H    2.042957921  -0.122447272   0.444639236
  N   -2.084933724   0.416333433   1.120996257
  H   -2.837361575   0.619857028   0.475290926
  H   -2.359740013  -0.397606575   1.656196950
  H   -2.024502510   1.193752165   1.766328963
