11
charge=0 charge_a=0 charge_b=0 selection_a=1-4 selection_b=5-11 scaling=1.25 benchmark_Eint=-1.107 benchmark_unit=kcal/mol group=XH-N
  P    1.605548349  -0.390617824  -0.727405998
  H    0.882634510  -0.288173574   0.486365489
  H    2.871614111  -0.472756002  -0.095217766
  H    1.688520054   1.012884015  -0.909617199
  N   -2.195176321   0.225443026   1.613330980
  H   -2.395674765   0.906231779   2.333311460
  H   -2.732526908  -0.602797594   1.831132108
  C   -2.543452945   0.742789604   0.290307855
  H   -2.300854948  -0.005765328  -0.463080954
  H   -3.595921849   1.020310041   0.163935791
  H   -1.936579419   1.622377370   0.078279836
