11
charge=0 charge_a=0 charge_b=0 selection_a=1-4 selection_b=5-11 scaling=0.95 benchmark_Eint=-1.610 benchmark_unit=kcal/mol group=XH-N
  P    1.605548349  -0.390617824  -0.727405998
  H    0.882634510  -0.288173574   0.486365489
  H    2.871614111  -0.472756002  -0.095217766
  H    1.688520054   1.012884015  -0.909617199
  N   -1.456501722   0.102175042   1.342859262
  H   -1.657000166   0.782963795   2.062839742
  H   -1.993852309  -0.726065578   1.560660390
  C   -1.804778346   0.619521620   0.019836137
  H   -1.562180349  -0.129033312  -0.733552672
  H   -2.857247250   0.897042057  -0.106535927
  H   -1.197904820   1.499109386  -0.192191882
