11
charge=0 charge_a=0 charge_b=0 selection_a=1-4 selection_b=5-11 scaling=1.1 benchmark_Eint=-1.558 benchmark_unit=kcal/mol group=XH-N
  P    1.605548349  -0.390617824  -0.727405998
  H    0.882634510  -0.288173574   0.486365489
  H    2.871614111  -0.472756002  -0.095217766
  H    1.688520054   1.012884015  -0.909617199
  N   -1.825839022   0.163809034   1.478095121
  H   -2.026337466   0.844597787   2.198075601
  H   -2.363189608  -0.664431586   1.695896249
  C   -2.174115646   0.681155612   0.155071996
  H   -1.931517648  -0.067399320  -0.598316813
  H   -3.226584550   0.958676049   0.028699932
  H   -1.567242120   1.560743378  -0.056956023
