11
charge=0 charge_a=0 charge_b=0 selection_a=1-4 selection_b=5-11 scaling=0.9 benchmark_Eint=-1.280 benchmark_unit=kcal/mol group=XH-N
  P    1.605548349  -0.390617824  -0.727405998
  H    0.882634510  -0.288173574   0.486365489
  H    2.871614111  -0.472756002  -0.095217766
  H    1.688520054   1.012884015  -0.909617199
  N   -1.333389288   0.081630378   1.297780643
  H   -1.533887732   0.762419131   2.017761123
  H   -1.870739876  -0.746610242   1.515581771
  C   -1.681665912   0.598976956  -0.025242482
  H   -1.439067916  -0.149577976  -0.778631291
  H   -2.734134816   0.876497393  -0.151614546
  H   -1.074792386   1.478564722  -0.237270501
