11
charge=0 charge_a=0 charge_b=0 selection_a=1-4 selection_b=5-11 scaling=1.0 benchmark_Eint=-1.707 benchmark_unit=kcal/mol group=XH-N
  P    1.605548349  -0.390617824  -0.727405998
  H    0.882634510  -0.288173574   0.486365489
  H    2.871614111  -0.472756002  -0.095217766
  H    1.688520054   1.012884015  -0.909617199
  N   -1.579614155   0.122719706   1.387937882
  H   -1.780112599   0.803508459   2.107918362
  H   -2.116964742  -0.705520914   1.605739010
  C   -1.927890779   0.640066284   0.064914757
  H   -1.685292782  -0.108488648  -0.688474052
  H   -2.980359683   0.917586721  -0.061457307
  H   -1.321017253   1.519654050  -0.147113262
