17
charge=0 charge_a=0 charge_b=0 selection_a=1-4 selection_b=5-17 scaling=1.05 benchmark_Eint=-2.115 benchmark_unit=kcal/mol group=XH-N
  P    0.084011746  -2.570366557   0.000000000
  H    0.634622704  -1.263582160   0.000000000
  H    0.930911127  -3.042279034   1.033886520
  H    0.930911127  -3.042279034  -1.033886520
  H    0.448875650   3.418202382   0.000000000
  H    1.619768844   2.419185387   0.882652225
  H    1.619768844   2.419185387  -0.882652225
  H   -0.092491041   1.246711996  -2.080724731
  H   -1.404848510   2.141489119  -1.289433942
  H   -1.345828016   0.371058195  -1.196974911
  H   -1.404848510   2.141489119   1.289433942
  H   -1.345828016   0.371058195   1.196974911
  C    0.982342918   2.452731618   0.000000000
  N    0.081428191   1.315645780   0.000000000
  C   -0.732878886   1.271691423  -1.199849959
  C   -0.732878886   1.271691423   1.199849959
  H   -0.092491041   1.246711996   2.080724731
