17
charge=0 charge_a=0 charge_b=0 selection_a=1-4 selection_b=5-17 scaling=1.1 benchmark_Eint=-2.000 benchmark_unit=kcal/mol group=XH-N
  P    0.084011746  -2.570366557   0.000000000
  H    0.634622704  -1.263582160   0.000000000
  H    0.930911127  -3.042279034   1.033886520
  H    0.930911127  -3.042279034  -1.033886520
  H    0.422533054   3.541022760   0.000000000
  H    1.593426248   2.542005765   0.882652225
  H    1.593426248   2.542005765  -0.882652225
  H   -0.118833637   1.369532374  -2.080724731
  H   -1.431191106   2.264309497  -1.289433942
  H   -1.372170612   0.493878573  -1.196974911
  H   -1.431191106   2.264309497   1.289433942
  H   -1.372170612   0.493878573   1.196974911
  C    0.956000322   2.575551996   0.000000000
  N    0.055085595   1.438466158   0.000000000
  C   -0.759221482   1.394511801  -1.199849959
  C   -0.759221482   1.394511801   1.199849959
  H   -0.118833637   1.369532374   2.080724731
