10
charge=0 charge_a=0 charge_b=0 selection_a=1-6 selection_b=7-10 scaling=2.0 benchmark_Eint=-0.480 benchmark_unit=kcal/mol group=XH-N
  H    2.010280107  -0.324447455  -0.630241859
  H    2.200430424  -1.331650047   0.808828266
  H    1.838633582   0.387952798   0.992167894
  H   -0.571036159   0.195417835  -0.151614939
  C    1.655656150  -0.493093976   0.382990471
  S   -0.109226185  -0.948575969   0.396375193
  N   -1.947890537   4.080018043  -1.947128867
  H   -2.353296736   4.660825463  -1.224127156
  H   -1.257432609   4.637731202  -2.433474993
  H   -2.681976366   3.862518079  -2.609208935
