13
charge=0 charge_a=0 charge_b=0 selection_a=1-6 selection_b=7-13 scaling=0.8 benchmark_Eint=-0.563 benchmark_unit=kcal/mol group=XH-N
  H    2.067582121   0.733583295   0.706900504
  H    2.074130579  -0.428106235   2.037638887
  H    0.654236511   0.591066779   1.779121329
  H    0.115869336  -0.479113373  -0.625228621
  C    1.453161194   0.046813200   1.282645428
  S    0.790670410  -1.283367978   0.227058564
  N   -0.976931101   0.708093947  -1.290551062
  H   -1.673603409   0.156766253  -1.773726140
  H   -0.689577760   1.443744800  -1.921740580
  C   -1.514588650   1.257988214  -0.044267173
  H   -0.751720143   1.871358977   0.432674083
  H   -2.414972603   1.868819697  -0.164849062
  H   -1.744924694   0.438830361   0.635431700
