13
charge=0 charge_a=0 charge_b=0 selection_a=1-6 selection_b=7-13 scaling=1.1 benchmark_Eint=-3.692 benchmark_unit=kcal/mol group=XH-N
  H    2.067582121   0.733583295   0.706900504
  H    2.074130579  -0.428106235   2.037638887
  H    0.654236511   0.591066779   1.779121329
  H    0.115869336  -0.479113373  -0.625228621
  C    1.453161194   0.046813200   1.282645428
  S    0.790670410  -1.283367978   0.227058564
  N   -1.386731265   1.153296692  -1.540046977
  H   -2.083403573   0.601968998  -2.023222055
  H   -1.099377924   1.888947545  -2.171236495
  C   -1.924388814   1.703190959  -0.293763088
  H   -1.161520307   2.316561722   0.183178168
  H   -2.824772767   2.314022442  -0.414344977
  H   -2.154724858   0.884033106   0.385935785
