13
charge=0 charge_a=0 charge_b=0 selection_a=1-6 selection_b=7-13 scaling=1.5 benchmark_Eint=-1.685 benchmark_unit=kcal/mol group=XH-N
  H    2.067582121   0.733583295   0.706900504
  H    2.074130579  -0.428106235   2.037638887
  H    0.654236511   0.591066779   1.779121329
  H    0.115869336  -0.479113373  -0.625228621
  C    1.453161194   0.046813200   1.282645428
  S    0.790670410  -1.283367978   0.227058564
  N   -1.933131483   1.746900352  -1.872708198
  H   -2.629803791   1.195572658  -2.355883276
  H   -1.645778142   2.482551205  -2.503897716
  C   -2.470789032   2.296794619  -0.626424308
  H   -1.707920525   2.910165382  -0.149483052
  H   -3.371172985   2.907626102  -0.747006198
  H   -2.701125076   1.477636766   0.053274564
