13
charge=0 charge_a=0 charge_b=0 selection_a=1-6 selection_b=7-13 scaling=1.0 benchmark_Eint=-3.886 benchmark_unit=kcal/mol group=XH-N
  H    2.067582121   0.733583295   0.706900504
  H    2.074130579  -0.428106235   2.037638887
  H    0.654236511   0.591066779   1.779121329
  H    0.115869336  -0.479113373  -0.625228621
  C    1.453161194   0.046813200   1.282645428
  S    0.790670410  -1.283367978   0.227058564
  N   -1.250131210   1.004895777  -1.456881672
  H   -1.946803518   0.453568083  -1.940056750
  H   -0.962777869   1.740546630  -2.088071190
  C   -1.787788759   1.554790044  -0.210597783
  H   -1.024920252   2.168160807   0.266343473
  H   -2.688172712   2.165621527  -0.331179672
  H   -2.018124803   0.735632191   0.469101090
