13
charge=0 charge_a=0 charge_b=0 selection_a=1-6 selection_b=7-13 scaling=0.95 benchmark_Eint=-3.709 benchmark_unit=kcal/mol group=XH-N
  H    2.067582121   0.733583295   0.706900504
  H    2.074130579  -0.428106235   2.037638887
  H    0.654236511   0.591066779   1.779121329
  H    0.115869336  -0.479113373  -0.625228621
  C    1.453161194   0.046813200   1.282645428
  S    0.790670410  -1.283367978   0.227058564
  N   -1.181831183   0.930695320  -1.415299019
  H   -1.878503491   0.379367626  -1.898474097
  H   -0.894477842   1.666346172  -2.046488537
  C   -1.719488732   1.480589586  -0.169015130
  H   -0.956620225   2.093960350   0.307926126
  H   -2.619872685   2.091421070  -0.289597019
  H   -1.949824776   0.661431734   0.510683743
