13
charge=0 charge_a=0 charge_b=0 selection_a=1-6 selection_b=7-13 scaling=0.9 benchmark_Eint=-3.213 benchmark_unit=kcal/mol group=XH-N
  H    2.067582121   0.733583295   0.706900504
  H    2.074130579  -0.428106235   2.037638887
  H    0.654236511   0.591066779   1.779121329
  H    0.115869336  -0.479113373  -0.625228621
  C    1.453161194   0.046813200   1.282645428
  S    0.790670410  -1.283367978   0.227058564
  N   -1.113531155   0.856494862  -1.373716367
  H   -1.810203463   0.305167168  -1.856891445
  H   -0.826177814   1.592145715  -2.004905885
  C   -1.651188704   1.406389129  -0.127432478
  H   -0.888320197   2.019759892   0.349508778
  H   -2.551572657   2.017220612  -0.248014367
  H   -1.881524748   0.587231276   0.552266395
