13
charge=0 charge_a=0 charge_b=0 selection_a=1-6 selection_b=7-13 scaling=1.05 benchmark_Eint=-3.853 benchmark_unit=kcal/mol group=XH-N
  H    2.067582121   0.733583295   0.706900504
  H    2.074130579  -0.428106235   2.037638887
  H    0.654236511   0.591066779   1.779121329
  H    0.115869336  -0.479113373  -0.625228621
  C    1.453161194   0.046813200   1.282645428
  S    0.790670410  -1.283367978   0.227058564
  N   -1.318431237   1.079096234  -1.498464325
  H   -2.015103545   0.527768540  -1.981639403
  H   -1.031077896   1.814747088  -2.129653843
  C   -1.856088786   1.628990502  -0.252180436
  H   -1.093220279   2.242361264   0.224760820
  H   -2.756472739   2.239821984  -0.372762325
  H   -2.086424830   0.809832648   0.427518437
