17
charge=0 charge_a=0 charge_b=0 selection_a=1-6 selection_b=7-17 scaling=1.1 benchmark_Eint=-4.053 benchmark_unit=kcal/mol group=XH-N
  H    2.386664889  -0.876414385   0.322225349
  H    3.247985213  -2.071033336   1.302201259
  H    2.489335005  -0.678380478   2.085478291
  H    0.023567545  -1.407023704   1.348266114
  C    2.395979833  -1.396794244   1.276056264
  S    0.902061296  -2.420884955   1.477340864
  H   -1.730104135   3.716701850  -0.556989087
  H   -1.357994065   2.116812867   1.304651587
  C   -1.093398916   2.303846973  -2.056185170
  C   -1.364791257   2.720838980  -0.760611502
  C   -1.156570990   1.826018812   0.281127971
  N   -0.708015007   0.584785235   0.097897711
  C   -0.449714046   0.192034064  -1.149467310
  C   -0.626219218   1.012575214  -2.256130831
  H   -0.086631727  -0.822743432  -1.260835008
  H   -0.402366277   0.644357985  -3.246548876
  H   -1.243198083   2.971727836  -2.892679242
