19
charge=0 charge_a=0 charge_b=0 selection_a=1-6 selection_b=7-19 scaling=1.25 benchmark_Eint=-3.608 benchmark_unit=kcal/mol group=XH-N
  H   -1.587915175  -1.939285078   0.889921579
  H   -1.218712774  -3.419324543   0.000000000
  H   -1.587915175  -1.939285078  -0.889921579
  H    0.551358815  -0.628721581   0.000000000
  C   -1.108038693  -2.338224205   0.000000000
  S    0.680082860  -1.981329585   0.000000000
  H   -1.241567181   3.118692339   1.304969702
  H   -1.784109272   1.433212191   1.194122284
  H   -0.308552871   1.822123261   2.080108439
  H    1.694358966   2.385064634   0.882692364
  H    0.919656465   3.715578401   0.000000000
  H    1.694358966   2.385064634  -0.882692364
  H   -1.241567181   3.118692339  -1.304969702
  H   -0.308552871   1.822123261  -2.080108439
  C   -0.904381710   2.075082575   1.204540608
  N   -0.123255525   1.855466548   0.000000000
  C    1.105447283   2.630028759   0.000000000
  C   -0.904381710   2.075082575  -1.204540608
  H   -1.784109272   1.433212191  -1.194122284
