19
charge=0 charge_a=0 charge_b=0 selection_a=1-6 selection_b=7-19 scaling=1.5 benchmark_Eint=-2.154 benchmark_unit=kcal/mol group=XH-N
  H   -1.587915175  -1.939285078   0.889921579
  H   -1.218712774  -3.419324543   0.000000000
  H   -1.587915175  -1.939285078  -0.889921579
  H    0.551358815  -0.628721581   0.000000000
  C   -1.108038693  -2.338224205   0.000000000
  S    0.680082860  -1.981329585   0.000000000
  H   -1.376490049   3.615529964   1.304969702
  H   -1.919032140   1.930049816   1.194122284
  H   -0.443475739   2.318960886   2.080108439
  H    1.559436098   2.881902260   0.882692364
  H    0.784733597   4.212416026   0.000000000
  H    1.559436098   2.881902260  -0.882692364
  H   -1.376490049   3.615529964  -1.304969702
  H   -0.443475739   2.318960886  -2.080108439
  C   -1.039304578   2.571920200   1.204540608
  N   -0.258178393   2.352304174   0.000000000
  C    0.970524415   3.126866384   0.000000000
  C   -1.039304578   2.571920200  -1.204540608
  H   -1.919032140   1.930049816  -1.194122284
