7
charge=0 charge_a=0 charge_b=0 selection_a=1-3 selection_b=4-7 scaling=2.0 benchmark_Eint=-0.619 benchmark_unit=kcal/mol group=XH-N
  H    0.008090959  -0.131663345  -0.010791431
  H    1.356736705   1.264750626  -0.257012778
  S    0.051756189   1.221663006   0.047664757
  N   -0.349560757  -4.460188965  -0.134110971
  H    0.171300948  -4.902418883   0.612594697
  H   -1.319987207  -4.727461116  -0.026892246
  H   -0.022273086  -4.851424488  -1.008323904
