7
charge=0 charge_a=0 charge_b=0 selection_a=1-3 selection_b=4-7 scaling=0.8 benchmark_Eint=-0.402 benchmark_unit=kcal/mol group=XH-N
  H    0.008090959  -0.131663345  -0.010791431
  H    1.356736705   1.264750626  -0.257012778
  S    0.051756189   1.221663006   0.047664757
  N   -0.134969727  -1.863073593  -0.060119247
  H    0.385891978  -2.305303511   0.686586421
  H   -1.105396177  -2.130345744   0.047099478
  H    0.192317944  -2.254309116  -0.934332180
