7
charge=0 charge_a=0 charge_b=0 selection_a=1-3 selection_b=4-7 scaling=1.0 benchmark_Eint=-3.530 benchmark_unit=kcal/mol group=XH-N
  H    0.008090959  -0.131663345  -0.010791431
  H    1.356736705   1.264750626  -0.257012778
  S    0.051756189   1.221663006   0.047664757
  N   -0.170734899  -2.295926155  -0.072451201
  H    0.350126806  -2.738156073   0.674254467
  H   -1.141161349  -2.563198306   0.034767524
  H    0.156552772  -2.687161678  -0.946664134
