10
charge=0 charge_a=0 charge_b=0 selection_a=1-3 selection_b=4-10 scaling=0.9 benchmark_Eint=-3.637 benchmark_unit=kcal/mol group=XH-N
  H    0.415090735   0.448828599   0.000000000
  H    1.128098734   2.276704808   0.000000000
  S   -0.088230706   1.713031849   0.000000000
  N    0.690738122  -1.401425622   0.000000000
  H    1.183098636  -1.742877066   0.814448910
  H    1.183098636  -1.742877066  -0.814448910
  C   -0.705339798  -1.844941587   0.000000000
  H   -1.207497580  -1.440534846  -0.877537922
  H   -0.837735536  -2.931117423   0.000000000
  H   -1.207497580  -1.440534846   0.877537922
