10
charge=0 charge_a=0 charge_b=0 selection_a=1-3 selection_b=4-10 scaling=1.0 benchmark_Eint=-4.373 benchmark_unit=kcal/mol group=XH-N
  H    0.415090735   0.448828599   0.000000000
  H    1.128098734   2.276704808   0.000000000
  S   -0.088230706   1.713031849   0.000000000
  N    0.721365609  -1.607009424   0.000000000
  H    1.213726123  -1.948460868   0.814448910
  H    1.213726123  -1.948460868  -0.814448910
  C   -0.674712311  -2.050525389   0.000000000
  H   -1.176870093  -1.646118648  -0.877537922
  H   -0.807108049  -3.136701225   0.000000000
  H   -1.176870093  -1.646118648   0.877537922
