10
charge=0 charge_a=0 charge_b=0 selection_a=1-3 selection_b=4-10 scaling=1.1 benchmark_Eint=-4.222 benchmark_unit=kcal/mol group=XH-N
  H    0.415090735   0.448828599   0.000000000
  H    1.128098734   2.276704808   0.000000000
  S   -0.088230706   1.713031849   0.000000000
  N    0.751993096  -1.812593226   0.000000000
  H    1.244353610  -2.154044670   0.814448910
  H    1.244353610  -2.154044670  -0.814448910
  C   -0.644084824  -2.256109191   0.000000000
  H   -1.146242606  -1.851702450  -0.877537922
  H   -0.776480562  -3.342285027   0.000000000
  H   -1.146242606  -1.851702450   0.877537922
