10
charge=0 charge_a=0 charge_b=0 selection_a=1-3 selection_b=4-10 scaling=0.9 benchmark_Eint=-2.426 benchmark_unit=kcal/mol group=XH-N
  H    1.217743030   0.788143311  -0.078965726
  H    1.906226285   2.113299383  -1.325472783
  S    1.841658755   1.977347311   0.007004422
  H   -2.052274027   0.301617322   1.153503578
  H   -2.303115539   0.407730818  -0.606265055
  H   -1.160309679   1.499380218   0.198185288
  C   -1.568283990   0.494647422   0.195219548
  N   -0.431516449  -0.415614662  -0.022024494
  N   -0.693304300  -1.612607795  -0.048402395
  N   -0.817644870  -2.733420774  -0.091197883
