10
charge=0 charge_a=0 charge_b=0 selection_a=1-3 selection_b=4-10 scaling=1.0 benchmark_Eint=-2.961 benchmark_unit=kcal/mol group=XH-N
  H    1.217743030   0.788143311  -0.078965726
  H    1.906226285   2.113299383  -1.325472783
  S    1.841658755   1.977347311   0.007004422
  H   -2.235525080   0.167866436   1.159830382
  H   -2.486366592   0.273979932  -0.599938251
  H   -1.343560732   1.365629332   0.204512092
  C   -1.751535043   0.360896536   0.201546352
  N   -0.614767502  -0.549365548  -0.015697690
  N   -0.876555353  -1.746358681  -0.042075591
  N   -1.000895923  -2.867171660  -0.084871079
