10
charge=0 charge_a=0 charge_b=0 selection_a=1-3 selection_b=4-10 scaling=1.1 benchmark_Eint=-2.777 benchmark_unit=kcal/mol group=XH-N
  H    1.217743030   0.788143311  -0.078965726
  H    1.906226285   2.113299383  -1.325472783
  S    1.841658755   1.977347311   0.007004422
  H   -2.418776133   0.034115550   1.166157186
  H   -2.669617645   0.140229046  -0.593611447
  H   -1.526811785   1.231878446   0.210838896
  C   -1.934786096   0.227145650   0.207873156
  N   -0.798018555  -0.683116434  -0.009370886
  N   -1.059806406  -1.880109567  -0.035748787
  N   -1.184146976  -3.000922546  -0.078544275
