10
charge=0 charge_a=0 charge_b=0 selection_a=1-3 selection_b=4-10 scaling=0.8 benchmark_Eint=-0.794 benchmark_unit=kcal/mol group=XH-N
  H    1.700202605   0.232163252   0.141981808
  H    1.830711941   2.076036912   0.741863884
  S    1.652224685   0.878921467   1.319452482
  H   -2.042303451   1.269169572  -0.310605087
  H   -2.722540870   0.300774284   1.028526352
  H   -1.051522963   0.938532913   1.146278731
  C   -1.823614136   0.559148793   0.482673346
  O   -1.370568680  -0.697583130  -0.112975375
  C   -0.265516002  -0.638747267  -0.757307561
  N    0.732771951  -0.620443694  -1.338663186
