14
charge=0 charge_a=0 charge_b=0 selection_a=1-3 selection_b=4-14 scaling=2.0 benchmark_Eint=-0.797 benchmark_unit=kcal/mol group=XH-N
  H    1.250211536   1.596045702   0.136912607
  H    3.150914906   1.841939977   0.530169019
  S    2.023375364   2.538594674   0.732605162
  H   -3.142361810  -3.440056799  -2.875046998
  H   -1.603979453  -1.490406213  -2.812863936
  C   -3.015080757  -3.757976960  -0.746188026
  C   -2.718480733  -3.111000348  -1.937754434
  C   -1.858570885  -2.021216444  -1.904141875
  N   -1.304139030  -1.567266712  -0.780745025
  C   -1.593373803  -2.192997914   0.359680948
  C   -2.441495300  -3.290493338   0.427722703
  H   -1.125321518  -1.795238537   1.251801679
  H   -2.644221574  -3.762455872   1.377746222
  H   -3.680514967  -4.609533421  -0.733015320
