14
charge=0 charge_a=0 charge_b=0 selection_a=1-3 selection_b=4-14 scaling=1.05 benchmark_Eint=-4.452 benchmark_unit=kcal/mol group=XH-N
  H    1.250211536   1.596045702   0.136912607
  H    3.150914906   1.841939977   0.530169019
  S    2.023375364   2.538594674   0.732605162
  H   -1.929045291  -1.937483402  -2.439159623
  H   -0.390662934   0.012167184  -2.376976561
  C   -1.801764238  -2.255403563  -0.310300651
  C   -1.505164214  -1.608426951  -1.501867059
  C   -0.645254366  -0.518643047  -1.468254500
  N   -0.090822511  -0.064693315  -0.344857650
  C   -0.380057284  -0.690424517   0.795568323
  C   -1.228178781  -1.787919941   0.863610078
  H    0.087995001  -0.292665140   1.687689054
  H   -1.430905055  -2.259882475   1.813633597
  H   -2.467198448  -3.106960024  -0.297127945
