14
charge=0 charge_a=0 charge_b=0 selection_a=1-3 selection_b=4-14 scaling=1.1 benchmark_Eint=-4.304 benchmark_unit=kcal/mol group=XH-N
  H    1.250211536   1.596045702   0.136912607
  H    3.150914906   1.841939977   0.530169019
  S    2.023375364   2.538594674   0.732605162
  H   -1.992904055  -2.016566213  -2.462101064
  H   -0.454521698  -0.066915627  -2.399918002
  C   -1.865623002  -2.334486374  -0.333242092
  C   -1.569022978  -1.687509762  -1.524808500
  C   -0.709113130  -0.597725858  -1.491195941
  N   -0.154681275  -0.143776126  -0.367799091
  C   -0.443916048  -0.769507328   0.772626882
  C   -1.292037545  -1.867002752   0.840668637
  H    0.024136237  -0.371747951   1.664747613
  H   -1.494763819  -2.338965286   1.790692156
  H   -2.531057212  -3.186042835  -0.320069386
