14
charge=0 charge_a=0 charge_b=0 selection_a=1-3 selection_b=4-14 scaling=1.25 benchmark_Eint=-3.489 benchmark_unit=kcal/mol group=XH-N
  H    1.250211536   1.596045702   0.136912607
  H    3.150914906   1.841939977   0.530169019
  S    2.023375364   2.538594674   0.732605162
  H   -2.184480348  -2.253814644  -2.530925386
  H   -0.646097991  -0.304164058  -2.468742324
  C   -2.057199295  -2.571734805  -0.402066414
  C   -1.760599271  -1.924758193  -1.593632822
  C   -0.900689423  -0.834974289  -1.560020263
  N   -0.346257568  -0.381024557  -0.436623413
  C   -0.635492341  -1.006755759   0.703802560
  C   -1.483613838  -2.104251183   0.771844315
  H   -0.167440056  -0.608996382   1.595923291
  H   -1.686340112  -2.576213717   1.721867834
  H   -2.722633505  -3.423291266  -0.388893708
