16
charge=0 charge_a=0 charge_b=0 selection_a=1-3 selection_b=4-16 scaling=1.5 benchmark_Eint=-2.602 benchmark_unit=kcal/mol group=XH-N
  H    0.067192993   0.971773336   0.000000000
  H    1.323045348   2.486783412   0.000000000
  S   -0.009552849   2.340443353   0.000000000
  H    0.586340756  -3.550462958  -1.303193424
  H    0.167786818  -2.009964020  -2.080506414
  H    1.687968067  -2.163500939  -1.197590280
  H    1.687968067  -2.163500939   1.197590280
  H    0.586340756  -3.550462958   1.303193424
  H    0.167786818  -2.009964020   2.080506414
  H   -1.648952722  -3.341396525   0.000000000
  H   -1.900960757  -1.822574160   0.882788905
  C    0.638925674  -2.455414773  -1.205875462
  N   -0.013561631  -1.973620106   0.000000000
  C    0.638925674  -2.455414773   1.205875462
  C   -1.438253314  -2.261335040   0.000000000
  H   -1.900960757  -1.822574160  -0.882788905
