16
charge=0 charge_a=0 charge_b=0 selection_a=1-3 selection_b=4-16 scaling=0.85 benchmark_Eint=-3.506 benchmark_unit=kcal/mol group=XH-N
  H    0.067192993   0.971773336   0.000000000
  H    1.323045348   2.486783412   0.000000000
  S   -0.009552849   2.340443353   0.000000000
  H    0.621334426  -2.274125800  -1.303193424
  H    0.202780488  -0.733626862  -2.080506414
  H    1.722961737  -0.887163781  -1.197590280
  H    1.722961737  -0.887163781   1.197590280
  H    0.621334426  -2.274125800   1.303193424
  H    0.202780488  -0.733626862   2.080506414
  H   -1.613959052  -2.065059367   0.000000000
  H   -1.865967087  -0.546237002   0.882788905
  C    0.673919344  -1.179077615  -1.205875462
  N    0.021432039  -0.697282948   0.000000000
  C    0.673919344  -1.179077615   1.205875462
  C   -1.403259644  -0.984997882   0.000000000
  H   -1.865967087  -0.546237002  -0.882788905
