16
charge=0 charge_a=0 charge_b=0 selection_a=1-3 selection_b=4-16 scaling=2.0 benchmark_Eint=-0.922 benchmark_unit=kcal/mol group=XH-N
  H    0.067192993   0.971773336   0.000000000
  H    1.323045348   2.486783412   0.000000000
  S   -0.009552849   2.340443353   0.000000000
  H    0.559422548  -4.532260772  -1.303193424
  H    0.140868610  -2.991761834  -2.080506414
  H    1.661049859  -3.145298753  -1.197590280
  H    1.661049859  -3.145298753   1.197590280
  H    0.559422548  -4.532260772   1.303193424
  H    0.140868610  -2.991761834   2.080506414
  H   -1.675870930  -4.323194339   0.000000000
  H   -1.927878965  -2.804371974   0.882788905
  C    0.612007466  -3.437212587  -1.205875462
  N   -0.040479839  -2.955417920   0.000000000
  C    0.612007466  -3.437212587   1.205875462
  C   -1.465171522  -3.243132854   0.000000000
  H   -1.927878965  -2.804371974  -0.882788905
