6
charge=0 charge_a=0 charge_b=0 selection_a=1-2 selection_b=3-6 scaling=0.85 benchmark_Eint=-10.388 benchmark_unit=kcal/mol group=XH-N
  H   -0.000000254  -0.306552956   0.000000000
  F   -0.000000230  -1.267128039   0.000000000
  N    0.000000238   1.116208727   0.000000000
  H   -0.472230373   1.480765071  -0.817926701
  H   -0.472230373   1.480765071   0.817926701
  H    0.944460562   1.480765561   0.000000000
