6
charge=0 charge_a=0 charge_b=0 selection_a=1-2 selection_b=3-6 scaling=1.5 benchmark_Eint=-7.078 benchmark_unit=kcal/mol group=XH-N
  H   -0.000000254  -0.306552956   0.000000000
  F   -0.000000230  -1.267128039   0.000000000
  N    0.000000614   2.204202955   0.000000000
  H   -0.472229996   2.568759299  -0.817926701
  H   -0.472229996   2.568759299   0.817926701
  H    0.944460938   2.568759789   0.000000000
