6
charge=0 charge_a=0 charge_b=0 selection_a=1-2 selection_b=3-6 scaling=0.9 benchmark_Eint=-12.352 benchmark_unit=kcal/mol group=XH-N
  H   -0.000000254  -0.306552956   0.000000000
  F   -0.000000230  -1.267128039   0.000000000
  N    0.000000267   1.199900591   0.000000000
  H   -0.472230344   1.564456935  -0.817926701
  H   -0.472230344   1.564456935   0.817926701
  H    0.944460591   1.564457425   0.000000000
