9
charge=0 charge_a=0 charge_b=0 selection_a=1-2 selection_b=3-9 scaling=0.8 benchmark_Eint=-8.228 benchmark_unit=kcal/mol group=XH-N
  H   -0.172375188  -0.888330607   0.000000000
  F    0.158810900  -1.799313584   0.000000000
  N   -0.557270662   0.358232876   0.000000000
  H   -1.136339156   0.525867352   0.813140199
  H   -1.136339156   0.525867352  -0.813140199
  C    0.617319595   1.244196426   0.000000000
  H    1.221845719   1.029083369   0.878043289
  H    1.221845719   1.029083369  -0.878043289
  H    0.364038282   2.306346374   0.000000000
