9
charge=0 charge_a=0 charge_b=0 selection_a=1-2 selection_b=3-9 scaling=1.25 benchmark_Eint=-12.162 benchmark_unit=kcal/mol group=XH-N
  H   -0.172375188  -0.888330607   0.000000000
  F    0.158810900  -1.799313584   0.000000000
  N   -0.773774367   1.059424836   0.000000000
  H   -1.352842861   1.227059312   0.813140199
  H   -1.352842861   1.227059312  -0.813140199
  C    0.400815890   1.945388386   0.000000000
  H    1.005342014   1.730275328   0.878043289
  H    1.005342014   1.730275328  -0.878043289
  H    0.147534577   3.007538334   0.000000000
