9
charge=0 charge_a=0 charge_b=0 selection_a=1-2 selection_b=3-9 scaling=1.5 benchmark_Eint=-8.033 benchmark_unit=kcal/mol group=XH-N
  H   -0.172375188  -0.888330607   0.000000000
  F    0.158810900  -1.799313584   0.000000000
  N   -0.894054202   1.448975924   0.000000000
  H   -1.473122696   1.616610400   0.813140199
  H   -1.473122696   1.616610400  -0.813140199
  C    0.280536054   2.334939474   0.000000000
  H    0.885062178   2.119826417   0.878043289
  H    0.885062178   2.119826417  -0.878043289
  H    0.027254742   3.397089422   0.000000000
