9
charge=0 charge_a=0 charge_b=0 selection_a=1-2 selection_b=3-9 scaling=1.25 benchmark_Eint=-6.408 benchmark_unit=kcal/mol group=XH-N
  H    0.328016831   1.546292083   0.000000000
  F    0.577717104   2.456537939   0.000000000
  H   -2.251152264  -1.244621335   0.891263521
  H   -2.251152264  -1.244621335  -0.891263521
  H   -2.392032390   0.280858617   0.000000000
  C   -1.935680148  -0.702286854   0.000000000
  N   -0.477609302  -0.484263122   0.000000000
  N    0.223314506  -1.495295741   0.000000000
  N    0.945625486  -2.357859550   0.000000000
