9
charge=0 charge_a=0 charge_b=0 selection_a=1-2 selection_b=3-9 scaling=1.1 benchmark_Eint=-7.895 benchmark_unit=kcal/mol group=XH-N
  H    0.328016831   1.546292083   0.000000000
  F    0.577717104   2.456537939   0.000000000
  H   -2.154477129  -1.000954710   0.891263521
  H   -2.154477129  -1.000954710  -0.891263521
  H   -2.295357255   0.524525242   0.000000000
  C   -1.839005012  -0.458620229   0.000000000
  N   -0.380934166  -0.240596497   0.000000000
  N    0.319989642  -1.251629116   0.000000000
  N    1.042300622  -2.114192925   0.000000000
