9
charge=0 charge_a=0 charge_b=0 selection_a=1-2 selection_b=3-9 scaling=1.0 benchmark_Eint=-9.680 benchmark_unit=kcal/mol group=XH-N
  H    0.047398582   2.376990287   0.000000000
  F    0.229305667   3.300103958   0.000000000
  H    1.277247878  -2.364380621  -0.895929680
  H    1.277247878  -2.364380621   0.895929680
  H    0.359166015  -3.610042108   0.000000000
  C    0.703615611  -2.583737536   0.000000000
  O   -0.517035031  -1.776836480   0.000000000
  C   -0.349417352  -0.511823609   0.000000000
  N   -0.237170796   0.634063670   0.000000000
