9
charge=0 charge_a=0 charge_b=0 selection_a=1-2 selection_b=3-9 scaling=1.5 benchmark_Eint=-5.250 benchmark_unit=kcal/mol group=XH-N
  H    0.047398582   2.376990287   0.000000000
  F    0.229305667   3.300103958   0.000000000
  H    1.134963189  -3.235843930  -0.895929680
  H    1.134963189  -3.235843930   0.895929680
  H    0.216881326  -4.481505416   0.000000000
  C    0.561330922  -3.455200844   0.000000000
  O   -0.659319720  -2.648299788   0.000000000
  C   -0.491702041  -1.383286918   0.000000000
  N   -0.379455485  -0.237399638   0.000000000
