14
charge=0 charge_a=0 charge_b=0 selection_a=1-2 selection_b=3-14 scaling=1.1 benchmark_Eint=-7.558 benchmark_unit=kcal/mol group=XH-N
  H    1.537496885   0.303101283  -0.387122015
  F    2.479783008   0.237657304  -0.327727349
  C   -0.627728564   0.241885118   1.957432274
  H   -0.966801568   1.266054219   2.115366548
  H    0.444514328   0.213081246   2.153127482
  H   -1.136866197  -0.419573887   2.649598930
  C   -0.900679044  -0.218530449   0.545285120
  O   -1.453265246  -1.256417708   0.268747802
  N   -0.395020022   0.623434801  -0.448538434
  H   -0.325454822   1.593324231  -0.177433392
  C   -0.805030496   0.393673400  -1.835402023
  H   -1.870507990   0.573932309  -1.978745776
  H   -0.231156594   1.051275768  -2.482278786
  H   -0.595089806  -0.637821720  -2.097951148
