14
charge=0 charge_a=0 charge_b=0 selection_a=1-2 selection_b=3-14 scaling=0.8 benchmark_Eint=-2.543 benchmark_unit=kcal/mol group=XH-N
  H    1.537496885   0.303101283  -0.387122015
  F    2.479783008   0.237657304  -0.327727349
  C   -0.100678499   0.154521431   1.974182207
  H   -0.439751503   1.178690532   2.132116481
  H    0.971564393   0.125717559   2.169877415
  H   -0.609816132  -0.506937574   2.666348863
  C   -0.373628979  -0.305894136   0.562035053
  O   -0.926215181  -1.343781395   0.285497735
  N    0.132030043   0.536071114  -0.431788501
  H    0.201595243   1.505960544  -0.160683459
  C   -0.277980431   0.306309713  -1.818652090
  H   -1.343457925   0.486568622  -1.961995843
  H    0.295893471   0.963912081  -2.465528853
  H   -0.068039741  -0.725185407  -2.081201215
