13
charge=0 charge_a=0 charge_b=0 selection_a=1-2 selection_b=3-13 scaling=1.25 benchmark_Eint=-11.453 benchmark_unit=kcal/mol group=XH-N
  H   -0.000000000   0.000000000  -2.212895458
  F   -0.000000000   0.000000000  -3.177886238
  H    0.000000000   2.147274954   2.403827914
  H    0.000000000   2.052423833  -0.083522241
  C    0.000000000   0.000000000   2.600334034
  C    0.000000000   1.195194544   1.894884898
  C    0.000000000   1.147329140   0.508805273
  N    0.000000000   0.000000000  -0.170676439
  C    0.000000000  -1.147329140   0.508805273
  C    0.000000000  -1.195194544   1.894884898
  H    0.000000000  -2.052423833  -0.083522241
  H    0.000000000  -2.147274954   2.403827914
  H    0.000000000   0.000000000   3.680966245
