13
charge=0 charge_a=0 charge_b=0 selection_a=1-2 selection_b=3-13 scaling=1.0 benchmark_Eint=-14.314 benchmark_unit=kcal/mol group=XH-N
  H   -0.000000000   0.000000000  -2.212895458
  F   -0.000000000   0.000000000  -3.177886238
  H    0.000000000   2.147274954   1.995384110
  H    0.000000000   2.052423833  -0.491966045
  C    0.000000000   0.000000000   2.191890230
  C    0.000000000   1.195194544   1.486441094
  C    0.000000000   1.147329140   0.100361469
  N    0.000000000   0.000000000  -0.579120243
  C    0.000000000  -1.147329140   0.100361469
  C    0.000000000  -1.195194544   1.486441094
  H    0.000000000  -2.052423833  -0.491966045
  H    0.000000000  -2.147274954   1.995384110
  H    0.000000000   0.000000000   3.272522441
