13
charge=0 charge_a=0 charge_b=0 selection_a=1-2 selection_b=3-13 scaling=0.85 benchmark_Eint=-10.761 benchmark_unit=kcal/mol group=XH-N
  H   -0.000000000   0.000000000  -2.212895458
  F   -0.000000000   0.000000000  -3.177886238
  H   -0.000000000   2.147274954   1.750317828
  H   -0.000000000   2.052423833  -0.737032327
  C   -0.000000000   0.000000000   1.946823948
  C   -0.000000000   1.195194544   1.241374812
  C   -0.000000000   1.147329140  -0.144704813
  N   -0.000000000   0.000000000  -0.824186525
  C    0.000000000  -1.147329140  -0.144704813
  C    0.000000000  -1.195194544   1.241374812
  H    0.000000000  -2.052423833  -0.737032327
  H    0.000000000  -2.147274954   1.750317828
  H   -0.000000000   0.000000000   3.027456159
