13
charge=0 charge_a=0 charge_b=0 selection_a=1-2 selection_b=3-13 scaling=0.95 benchmark_Eint=-13.972 benchmark_unit=kcal/mol group=XH-N
  H   -0.000000000   0.000000000  -2.212895458
  F   -0.000000000   0.000000000  -3.177886238
  H   -0.000000000   2.147274954   1.913695349
  H   -0.000000000   2.052423833  -0.573654806
  C   -0.000000000   0.000000000   2.110201469
  C   -0.000000000   1.195194544   1.404752333
  C   -0.000000000   1.147329140   0.018672708
  N   -0.000000000   0.000000000  -0.660809004
  C    0.000000000  -1.147329140   0.018672708
  C    0.000000000  -1.195194544   1.404752333
  H    0.000000000  -2.052423833  -0.573654806
  H    0.000000000  -2.147274954   1.913695349
  H   -0.000000000   0.000000000   3.190833680
