13
charge=0 charge_a=0 charge_b=0 selection_a=1-2 selection_b=3-13 scaling=1.05 benchmark_Eint=-14.168 benchmark_unit=kcal/mol group=XH-N
  H   -0.000000000   0.000000000  -2.212895458
  F   -0.000000000   0.000000000  -3.177886238
  H    0.000000000   2.147274954   2.077072871
  H    0.000000000   2.052423833  -0.410277284
  C    0.000000000   0.000000000   2.273578991
  C    0.000000000   1.195194544   1.568129855
  C    0.000000000   1.147329140   0.182050230
  N    0.000000000   0.000000000  -0.497431482
  C    0.000000000  -1.147329140   0.182050230
  C    0.000000000  -1.195194544   1.568129855
  H    0.000000000  -2.052423833  -0.410277284
  H    0.000000000  -2.147274954   2.077072871
  H    0.000000000   0.000000000   3.354211202
