15
charge=0 charge_a=0 charge_b=0 selection_a=1-2 selection_b=3-15 scaling=0.95 benchmark_Eint=-16.726 benchmark_unit=kcal/mol group=XH-N
  H   -0.000001751  -1.212907688   0.000000000
  F   -0.000003522  -2.192357204   0.000000000
  H   -0.738366341   1.828595615  -1.278886190
  H   -0.184946759   0.345579142  -2.085097026
  H   -1.713274829   0.345579746  -1.202713111
  H   -1.713274829   0.345579746   1.202713111
  H   -0.738366341   1.828595615   1.278886190
  H   -0.184946759   0.345579142   2.085097026
  H    1.476737454   1.828593302   0.000000000
  H    1.898220856   0.345577128   0.882381628
  C   -0.697357727   0.734454504  -1.207858275
  N    0.000001068   0.294751293   0.000000000
  C   -0.697357727   0.734454504   1.207858275
  C    1.394718927   0.734452867   0.000000000
  H    1.898220856   0.345577128  -0.882381628
