15
charge=0 charge_a=0 charge_b=0 selection_a=1-2 selection_b=3-15 scaling=1.05 benchmark_Eint=-16.744 benchmark_unit=kcal/mol group=XH-N
  H   -0.000001751  -1.212907688   0.000000000
  F   -0.000003522  -2.192357204   0.000000000
  H   -0.738366045   1.987296561  -1.278886190
  H   -0.184946463   0.504280088  -2.085097026
  H   -1.713274533   0.504280692  -1.202713111
  H   -1.713274533   0.504280692   1.202713111
  H   -0.738366045   1.987296561   1.278886190
  H   -0.184946463   0.504280088   2.085097026
  H    1.476737750   1.987294248   0.000000000
  H    1.898221152   0.504278074   0.882381628
  C   -0.697357431   0.893155450  -1.207858275
  N    0.000001364   0.453452239   0.000000000
  C   -0.697357431   0.893155450   1.207858275
  C    1.394719223   0.893153813   0.000000000
  H    1.898221152   0.504278074  -0.882381628
