15
charge=0 charge_a=0 charge_b=0 selection_a=1-2 selection_b=3-15 scaling=0.8 benchmark_Eint=-9.588 benchmark_unit=kcal/mol group=XH-N
  H   -0.000001751  -1.212907688   0.000000000
  F   -0.000003522  -2.192357204   0.000000000
  H   -0.738366786   1.590544197  -1.278886190
  H   -0.184947204   0.107527724  -2.085097026
  H   -1.713275274   0.107528328  -1.202713111
  H   -1.713275274   0.107528328   1.202713111
  H   -0.738366786   1.590544197   1.278886190
  H   -0.184947204   0.107527724   2.085097026
  H    1.476737009   1.590541884   0.000000000
  H    1.898220411   0.107525710   0.882381628
  C   -0.697358172   0.496403086  -1.207858275
  N    0.000000623   0.056699875   0.000000000
  C   -0.697358172   0.496403086   1.207858275
  C    1.394718482   0.496401449   0.000000000
  H    1.898220411   0.107525710  -0.882381628
