6
charge=0 charge_a=0 charge_b=0 selection_a=1-2 selection_b=3-6 scaling=1.5 benchmark_Eint=-5.261 benchmark_unit=kcal/mol group=XH-N
  H    0.000000216  -0.312689967   0.000000000
 Cl   -0.000001282   1.030655196   0.000000000
  N    0.000004008  -2.895380798   0.000000000
  H   -0.473180123  -3.254388850   0.819577485
  H   -0.473180123  -3.254388850  -0.819577485
  H    0.946370184  -3.254390630   0.000000000
