6
charge=0 charge_a=0 charge_b=0 selection_a=1-2 selection_b=3-6 scaling=1.05 benchmark_Eint=-9.617 benchmark_unit=kcal/mol group=XH-N
  H    0.000000216  -0.312689967   0.000000000
 Cl   -0.000001282   1.030655196   0.000000000
  N    0.000002870  -2.120573548   0.000000000
  H   -0.473181261  -2.479581600   0.819577485
  H   -0.473181261  -2.479581600  -0.819577485
  H    0.946369046  -2.479583380   0.000000000
