9
charge=0 charge_a=0 charge_b=0 selection_a=1-2 selection_b=3-9 scaling=0.9 benchmark_Eint=-13.108 benchmark_unit=kcal/mol group=XH-N
  H    0.336684409   0.188965689   0.000000000
 Cl   -0.071380756   1.520063651   0.000000000
  N    0.645059643  -1.175937100   0.000000000
  H    1.203474425  -1.387835528   0.817050016
  H    1.203474425  -1.387835528  -0.817050016
  C   -0.621964381  -1.920870586   0.000000000
  H   -1.195831532  -1.635195304  -0.878231722
  H   -0.487677765  -3.003538302   0.000000000
  H   -1.195831532  -1.635195304   0.878231722
