9
charge=0 charge_a=0 charge_b=0 selection_a=1-2 selection_b=3-9 scaling=1.0 benchmark_Eint=-14.030 benchmark_unit=kcal/mol group=XH-N
  H    0.336684409   0.188965689   0.000000000
 Cl   -0.071380756   1.520063651   0.000000000
  N    0.679323558  -1.327592966   0.000000000
  H    1.237738340  -1.539491393   0.817050016
  H    1.237738340  -1.539491393  -0.817050016
  C   -0.587700466  -2.072526452   0.000000000
  H   -1.161567617  -1.786851169  -0.878231722
  H   -0.453413850  -3.155194168   0.000000000
  H   -1.161567617  -1.786851169   0.878231722
