9
charge=0 charge_a=0 charge_b=0 selection_a=1-2 selection_b=3-9 scaling=1.25 benchmark_Eint=-11.354 benchmark_unit=kcal/mol group=XH-N
  H    0.336684409   0.188965689   0.000000000
 Cl   -0.071380756   1.520063651   0.000000000
  N    0.764983345  -1.706732630   0.000000000
  H    1.323398127  -1.918631057   0.817050016
  H    1.323398127  -1.918631057  -0.817050016
  C   -0.502040679  -2.451666116   0.000000000
  H   -1.075907830  -2.165990833  -0.878231722
  H   -0.367754063  -3.534333832   0.000000000
  H   -1.075907830  -2.165990833   0.878231722
