9
charge=0 charge_a=0 charge_b=0 selection_a=1-2 selection_b=3-9 scaling=1.05 benchmark_Eint=-13.839 benchmark_unit=kcal/mol group=XH-N
  H    0.336684409   0.188965689   0.000000000
 Cl   -0.071380756   1.520063651   0.000000000
  N    0.696455515  -1.403420899   0.000000000
  H    1.254870297  -1.615319326   0.817050016
  H    1.254870297  -1.615319326  -0.817050016
  C   -0.570568509  -2.148354385   0.000000000
  H   -1.144435660  -1.862679102  -0.878231722
  H   -0.436281893  -3.231022101   0.000000000
  H   -1.144435660  -1.862679102   0.878231722
