9
charge=0 charge_a=0 charge_b=0 selection_a=1-2 selection_b=3-9 scaling=0.8 benchmark_Eint=-8.760 benchmark_unit=kcal/mol group=XH-N
  H    0.336684409   0.188965689   0.000000000
 Cl   -0.071380756   1.520063651   0.000000000
  N    0.610795728  -1.024281235   0.000000000
  H    1.169210510  -1.236179662   0.817050016
  H    1.169210510  -1.236179662  -0.817050016
  C   -0.656228296  -1.769214721   0.000000000
  H   -1.230095447  -1.483539438  -0.878231722
  H   -0.521941680  -2.851882437   0.000000000
  H   -1.230095447  -1.483539438   0.878231722
