9
charge=0 charge_a=0 charge_b=0 selection_a=1-2 selection_b=3-9 scaling=1.25 benchmark_Eint=-4.384 benchmark_unit=kcal/mol group=XH-N
  H    0.126682222   1.083119430   0.000000000
 Cl    0.244070020   2.384096055   0.000000000
  H   -2.160609418  -2.076715552   0.891135748
  H   -2.160609418  -2.076715552  -0.891135748
  H   -2.415077982  -0.566228677   0.000000000
  C   -1.885357016  -1.512307638   0.000000000
  N   -0.449894040  -1.184931280   0.000000000
  N    0.330974718  -2.132875879   0.000000000
  N    1.131127842  -2.925609500   0.000000000
