9
charge=0 charge_a=0 charge_b=0 selection_a=1-2 selection_b=3-9 scaling=0.9 benchmark_Eint=-4.646 benchmark_unit=kcal/mol group=XH-N
  H    0.126682222   1.083119430   0.000000000
 Cl    0.244070020   2.384096055   0.000000000
  H   -1.999168064  -1.441661353   0.891135748
  H   -1.999168064  -1.441661353  -0.891135748
  H   -2.253636628   0.068825522   0.000000000
  C   -1.723915663  -0.877253439   0.000000000
  N   -0.288452687  -0.549877081   0.000000000
  N    0.492416071  -1.497821680   0.000000000
  N    1.292569195  -2.290555301   0.000000000
