9
charge=0 charge_a=0 charge_b=0 selection_a=1-2 selection_b=3-9 scaling=1.5 benchmark_Eint=-2.716 benchmark_unit=kcal/mol group=XH-N
  H    0.126682222   1.083119430   0.000000000
 Cl    0.244070020   2.384096055   0.000000000
  H   -2.275924670  -2.530325694   0.891135748
  H   -2.275924670  -2.530325694  -0.891135748
  H   -2.530393234  -1.019838819   0.000000000
  C   -2.000672269  -1.965917780   0.000000000
  N   -0.565209293  -1.638541422   0.000000000
  N    0.215659465  -2.586486021   0.000000000
  N    1.015812589  -3.379219642   0.000000000
