9
charge=0 charge_a=0 charge_b=0 selection_a=1-2 selection_b=3-9 scaling=0.95 benchmark_Eint=-5.987 benchmark_unit=kcal/mol group=XH-N
  H    0.108442249  -1.774679671   0.000000000
 Cl   -0.147300079  -3.049197596   0.000000000
  H   -1.377138797   2.909947217  -0.895624011
  H   -1.377138797   2.909947217   0.895624011
  H   -0.568314068   4.228982792   0.000000000
  C   -0.823167048   3.176715255   0.000000000
  O    0.460207023   2.476996434   0.000000000
  C    0.397459800   1.200466078   0.000000000
  N    0.380093024   0.048013531   0.000000000
