9
charge=0 charge_a=0 charge_b=0 selection_a=1-2 selection_b=3-9 scaling=1.5 benchmark_Eint=-3.306 benchmark_unit=kcal/mol group=XH-N
  H    0.108442249  -1.774679671   0.000000000
 Cl   -0.147300079  -3.049197596   0.000000000
  H   -1.219867296   3.965190650  -0.895624011
  H   -1.219867296   3.965190650   0.895624011
  H   -0.411042567   5.284226224   0.000000000
  C   -0.665895547   4.231958688   0.000000000
  O    0.617478524   3.532239866   0.000000000
  C    0.554731301   2.255709510   0.000000000
  N    0.537364525   1.103256964   0.000000000
