14
charge=0 charge_a=0 charge_b=0 selection_a=1-2 selection_b=3-14 scaling=0.95 benchmark_Eint=-4.756 benchmark_unit=kcal/mol group=XH-N
  H    1.028265062   0.532241587  -0.362285786
 Cl    2.047560612   1.348590584  -0.329954463
  C   -0.387402979  -1.184598170   1.894299072
  H   -0.724626034  -0.633224187   2.766065330
  H    0.700619433  -1.182167722   1.855508442
  H   -0.726537772  -2.217094431   1.991346632
  C   -1.007482876  -0.573552483   0.658686376
  O   -2.047202599   0.046465671   0.671094577
  N   -0.280554153  -0.750667654  -0.507336775
  H    0.386354943  -1.506255535  -0.497896787
  C   -0.889776026  -0.438467813  -1.796135518
  H   -1.341220072   0.546761589  -1.739993675
  H   -0.116724292  -0.435135024  -2.559815615
  H   -1.666077729  -1.155946951  -2.064336468
