14
charge=0 charge_a=0 charge_b=0 selection_a=1-2 selection_b=3-14 scaling=1.1 benchmark_Eint=-4.741 benchmark_unit=kcal/mol group=XH-N
  H    1.028265062   0.532241587  -0.362285786
 Cl    2.047560612   1.348590584  -0.329954463
  C   -0.594058645  -1.387162787   1.871396284
  H   -0.931281700  -0.835788804   2.743162542
  H    0.493963767  -1.384732339   1.832605654
  H   -0.933193438  -2.419659048   1.968443844
  C   -1.214138542  -0.776117100   0.635783588
  O   -2.253858265  -0.156098946   0.648191789
  N   -0.487209819  -0.953232271  -0.530239563
  H    0.179699277  -1.708820152  -0.520799575
  C   -1.096431692  -0.641032430  -1.819038306
  H   -1.547875738   0.344196972  -1.762896463
  H   -0.323379958  -0.637699641  -2.582718403
  H   -1.872733395  -1.358511568  -2.087239256
