14
charge=0 charge_a=0 charge_b=0 selection_a=1-2 selection_b=3-14 scaling=0.9 benchmark_Eint=-4.173 benchmark_unit=kcal/mol group=XH-N
  H    1.028265062   0.532241587  -0.362285786
 Cl    2.047560612   1.348590584  -0.329954463
  C   -0.318517757  -1.117076631   1.901933334
  H   -0.655740812  -0.565702648   2.773699592
  H    0.769504655  -1.114646183   1.863142704
  H   -0.657652550  -2.149572892   1.998980894
  C   -0.938597654  -0.506030944   0.666320638
  O   -1.978317377   0.113987210   0.678728839
  N   -0.211668931  -0.683146115  -0.499702513
  H    0.455240165  -1.438733996  -0.490262525
  C   -0.820890804  -0.370946274  -1.788501256
  H   -1.272334850   0.614283128  -1.732359413
  H   -0.047839070  -0.367613485  -2.552181353
  H   -1.597192507  -1.088425412  -2.056702206
