14
charge=0 charge_a=0 charge_b=0 selection_a=1-2 selection_b=3-14 scaling=2.0 benchmark_Eint=-0.644 benchmark_unit=kcal/mol group=XH-N
  H    1.028265062   0.532241587  -0.362285786
 Cl    2.047560612   1.348590584  -0.329954463
  C   -1.833992638  -2.602550489   1.733979557
  H   -2.171215693  -2.051176506   2.605745815
  H   -0.745970226  -2.600120041   1.695188927
  H   -2.173127431  -3.635046750   1.831027117
  C   -2.454072535  -1.991504802   0.498366861
  O   -3.493792258  -1.371486648   0.510775062
  N   -1.727143812  -2.168619973  -0.667656290
  H   -1.060234716  -2.924207854  -0.658216302
  C   -2.336365685  -1.856420132  -1.956455033
  H   -2.787809731  -0.871190730  -1.900313190
  H   -1.563313951  -1.853087343  -2.720135130
  H   -3.112667388  -2.573899270  -2.224655983
