13
charge=0 charge_a=0 charge_b=0 selection_a=1-2 selection_b=3-13 scaling=0.8 benchmark_Eint=-6.695 benchmark_unit=kcal/mol group=XH-N
  H    0.000000000   0.000000000   1.625883667
 Cl    0.000000000   0.000000000   2.993344991
  H    0.000000000  -2.147713952  -2.227718976
  H    0.000000000  -2.051415327   0.265811177
  C    0.000000000   0.000000000  -2.421519779
  C    0.000000000  -1.196403290  -1.717403548
  C    0.000000000  -1.149313355  -0.331470821
  N    0.000000000   0.000000000   0.341525900
  C   -0.000000000   1.149313355  -0.331470821
  C   -0.000000000   1.196403290  -1.717403548
  H   -0.000000000   2.051415327   0.265811177
  H   -0.000000000   2.147713952  -2.227718976
  H    0.000000000   0.000000000  -3.502097297
