13
charge=0 charge_a=0 charge_b=0 selection_a=1-2 selection_b=3-13 scaling=0.95 benchmark_Eint=-11.705 benchmark_unit=kcal/mol group=XH-N
  H    0.000000000   0.000000000   1.625883667
 Cl    0.000000000   0.000000000   2.993344991
  H    0.000000000  -2.147713952  -2.468536058
  H    0.000000000  -2.051415327   0.024994095
  C    0.000000000   0.000000000  -2.662336861
  C    0.000000000  -1.196403290  -1.958220630
  C    0.000000000  -1.149313355  -0.572287903
  N    0.000000000   0.000000000   0.100708818
  C   -0.000000000   1.149313355  -0.572287903
  C   -0.000000000   1.196403290  -1.958220630
  H   -0.000000000   2.051415327   0.024994095
  H   -0.000000000   2.147713952  -2.468536058
  H    0.000000000   0.000000000  -3.742914379
