6
charge=0 charge_a=0 charge_b=0 selection_a=1-2 selection_b=3-6 scaling=0.95 benchmark_Eint=-9.780 benchmark_unit=kcal/mol group=XH-N
  H    0.000015148  -0.932477668   0.000000000
 Br   -0.000005844   0.581740630   0.000000000
  N    0.000025829  -2.496287977   0.000000000
  H   -0.474353806  -2.848753781   0.821647420
  H   -0.474353806  -2.848753781  -0.821647420
  H    0.948781706  -2.848757607   0.000000000
