6
charge=0 charge_a=0 charge_b=0 selection_a=1-2 selection_b=3-6 scaling=1.25 benchmark_Eint=-8.026 benchmark_unit=kcal/mol group=XH-N
  H    0.000015148  -0.932477668   0.000000000
 Br   -0.000005844   0.581740630   0.000000000
  N    0.000029202  -2.990122812   0.000000000
  H   -0.474350433  -3.342588616   0.821647420
  H   -0.474350433  -3.342588616  -0.821647420
  H    0.948785079  -3.342592442   0.000000000
