6
charge=0 charge_a=0 charge_b=0 selection_a=1-2 selection_b=3-6 scaling=1.05 benchmark_Eint=-9.769 benchmark_unit=kcal/mol group=XH-N
  H    0.000015148  -0.932477668   0.000000000
 Br   -0.000005844   0.581740630   0.000000000
  N    0.000026953  -2.660899589   0.000000000
  H   -0.474352682  -3.013365393   0.821647420
  H   -0.474352682  -3.013365393  -0.821647420
  H    0.948782830  -3.013369219   0.000000000
