6
charge=0 charge_a=0 charge_b=0 selection_a=1-2 selection_b=3-6 scaling=2.0 benchmark_Eint=-2.310 benchmark_unit=kcal/mol group=XH-N
  H    0.000015148  -0.932477668   0.000000000
 Br   -0.000005844   0.581740630   0.000000000
  N    0.000037634  -4.224709898   0.000000000
  H   -0.474342001  -4.577175702   0.821647420
  H   -0.474342001  -4.577175702  -0.821647420
  H    0.948793511  -4.577179528   0.000000000
