9
charge=0 charge_a=0 charge_b=0 selection_a=1-2 selection_b=3-9 scaling=1.05 benchmark_Eint=-5.051 benchmark_unit=kcal/mol group=XH-N
  H    0.036809127   0.227480533  -0.084366851
 Br    0.024581402   1.675889392  -0.191628359
  H   -1.867621743  -2.452488036   1.313433454
  H   -1.987775828  -2.876359645  -0.413643671
  H   -2.290589571  -1.213363921   0.119408101
  C   -1.694796122  -2.102148118   0.295648624
  N   -0.291202198  -1.706048503   0.098916380
  N    0.559955534  -2.572397257   0.279259739
  N    1.421145997  -3.285582254   0.416708660
