9
charge=0 charge_a=0 charge_b=0 selection_a=1-2 selection_b=3-9 scaling=1.5 benchmark_Eint=-2.530 benchmark_unit=kcal/mol group=XH-N
  H    0.036809127   0.227480533  -0.084366851
 Br    0.024581402   1.675889392  -0.191628359
  H   -2.008198025  -3.281143338   1.391983410
  H   -2.128352110  -3.705014946  -0.335093715
  H   -2.431165853  -2.042019222   0.197958057
  C   -1.835372404  -2.930803420   0.374198580
  N   -0.431778480  -2.534703804   0.177466336
  N    0.419379252  -3.401052558   0.357809695
  N    1.280569715  -4.114237556   0.495258616
