9
charge=0 charge_a=0 charge_b=0 selection_a=1-2 selection_b=3-9 scaling=0.95 benchmark_Eint=-4.832 benchmark_unit=kcal/mol group=XH-N
  H    0.036809127   0.227480533  -0.084366851
 Br    0.024581402   1.675889392  -0.191628359
  H   -1.836382569  -2.268342414   1.295977908
  H   -1.956536654  -2.692214023  -0.431099217
  H   -2.259350397  -1.029218299   0.101952555
  C   -1.663556948  -1.918002496   0.278193078
  N   -0.259963024  -1.521902881   0.081460834
  N    0.591194708  -2.388251635   0.261804193
  N    1.452385171  -3.101436632   0.399253114
