9
charge=0 charge_a=0 charge_b=0 selection_a=1-2 selection_b=3-9 scaling=1.05 benchmark_Eint=-5.350 benchmark_unit=kcal/mol group=XH-N
  H    0.297566448  -0.717849564   0.000000000
 Br   -0.085272120  -2.108519111   0.000000000
  H   -1.453592602   3.932296676   0.895536333
  H   -0.825527243   5.346399284   0.000000000
  H   -1.453592602   3.932296676  -0.895536333
  C   -0.939371234   4.269692776   0.000000000
  O    0.424782850   3.745142395   0.000000000
  C    0.529741011   2.471010310   0.000000000
  N    0.664858990   1.325987188   0.000000000
