14
charge=0 charge_a=0 charge_b=0 selection_a=1-2 selection_b=3-14 scaling=1.0 benchmark_Eint=-4.798 benchmark_unit=kcal/mol group=XH-N
  H    0.096771930   0.137479490  -0.463314473
 Br    1.186865228   0.951683611  -0.972916370
  C    0.112954273  -2.171861797   1.669093793
  H    0.053640360  -2.555544165   2.682352213
  H    1.056321462  -1.635988855   1.555787527
  H    0.110368061  -2.998429753   0.959828880
  C   -1.024477314  -1.203703131   1.441167276
  O   -1.559957668  -0.582944987   2.332294072
  N   -1.360859040  -1.001481460   0.113138083
  H   -1.120158256  -1.743316352  -0.523841140
  C   -2.531967666  -0.201549416  -0.227361269
  H   -2.493299812   0.731271502   0.326090213
  H   -2.513547398   0.013164516  -1.292465224
  H   -3.461316483  -0.712004843   0.026982457
