14
charge=0 charge_a=0 charge_b=0 selection_a=1-2 selection_b=3-14 scaling=0.8 benchmark_Eint=-1.562 benchmark_unit=kcal/mol group=XH-N
  H    0.096771930   0.137479490  -0.463314473
 Br    1.186865228   0.951683611  -0.972916370
  C    0.404480467  -1.944069607   1.553803282
  H    0.345166554  -2.327751975   2.567061702
  H    1.347847656  -1.408196665   1.440497016
  H    0.401894255  -2.770637563   0.844538369
  C   -0.732951120  -0.975910941   1.325876765
  O   -1.268431474  -0.355152797   2.217003561
  N   -1.069332846  -0.773689270  -0.002152428
  H   -0.828632062  -1.515524162  -0.639131651
  C   -2.240441472   0.026242774  -0.342651780
  H   -2.201773618   0.959063692   0.210799702
  H   -2.222021204   0.240956706  -1.407755735
  H   -3.169790289  -0.484212653  -0.088308054
