6
charge=0 charge_a=0 charge_b=0 selection_a=1-2 selection_b=3-6 scaling=0.9 benchmark_Eint=-7.665 benchmark_unit=kcal/mol group=XH-N
  H   -0.130828491   0.131510701  -0.431202063
  I    0.015068266  -0.015261633  -2.148009928
  N   -0.253008712   0.254481567   1.008176829
  H    0.037044451  -0.606106618   1.454858639
  H    0.330987969   1.010740629   1.341774325
  H   -1.214489521   0.446809086   1.258840674
