6
charge=0 charge_a=0 charge_b=0 selection_a=1-2 selection_b=3-6 scaling=0.8 benchmark_Eint=-5.417 benchmark_unit=kcal/mol group=XH-N
  H   -0.130828491   0.131510701  -0.431202063
  I    0.015068266  -0.015261633  -2.148009928
  N   -0.239433132   0.240818138   0.848245841
  H    0.050620031  -0.619770047   1.294927651
  H    0.344563549   0.997077200   1.181843337
  H   -1.200913941   0.433145657   1.098909686
