6
charge=0 charge_a=0 charge_b=0 selection_a=1-2 selection_b=3-6 scaling=0.95 benchmark_Eint=-8.040 benchmark_unit=kcal/mol group=XH-N
  H   -0.130828491   0.131510701  -0.431202063
  I    0.015068266  -0.015261633  -2.148009928
  N   -0.259796502   0.261313282   1.088142323
  H    0.030256661  -0.599274903   1.534824133
  H    0.324200179   1.017572344   1.421739819
  H   -1.221277311   0.453640801   1.338806168
