9
charge=0 charge_a=0 charge_b=0 selection_a=1-2 selection_b=3-9 scaling=0.8 benchmark_Eint=-0.920 benchmark_unit=kcal/mol group=XH-N
  H    0.113038661   0.093971994  -0.503615560
  I   -0.411387200   0.368949864  -2.030082527
  H   -0.719524808   1.629734859   1.910362752
  H   -0.982560477   0.065346433   2.722771662
  H   -1.695990839   0.375122077   1.129935697
  C   -0.832605528   0.555677267   1.760771694
  N    0.326042827  -0.012586288   1.052628916
  N    1.425115855   0.159301960   1.572089455
  N    2.481431441   0.254983681   1.953464858
