9
charge=0 charge_a=0 charge_b=0 selection_a=1-2 selection_b=3-9 scaling=2.0 benchmark_Eint=-0.666 benchmark_unit=kcal/mol group=XH-N
  H    0.113038661   0.093971994  -0.503615560
  I   -0.411387200   0.368949864  -2.030082527
  H   -0.400018558   1.469897435   4.244729466
  H   -0.663054227  -0.094490991   5.057138376
  H   -1.376484589   0.215284653   3.464302411
  C   -0.513099278   0.395839843   4.095138408
  N    0.645549077  -0.172423712   3.386995630
  N    1.744622105  -0.000535464   3.906456169
  N    2.800937691   0.095146257   4.287831572
