9
charge=0 charge_a=0 charge_b=0 selection_a=1-2 selection_b=3-9 scaling=1.5 benchmark_Eint=-1.905 benchmark_unit=kcal/mol group=XH-N
  H    0.113038661   0.093971994  -0.503615560
  I   -0.411387200   0.368949864  -2.030082527
  H   -0.533146162   1.536496362   3.272076668
  H   -0.796181831  -0.027892064   4.084485578
  H   -1.509612193   0.281883580   2.491649614
  C   -0.646226882   0.462438770   3.122485610
  N    0.512421473  -0.105824786   2.414342832
  N    1.611494501   0.066063462   2.933803372
  N    2.667810087   0.161745184   3.315178774
