9
charge=0 charge_a=0 charge_b=0 selection_a=1-2 selection_b=3-9 scaling=1.0 benchmark_Eint=-4.142 benchmark_unit=kcal/mol group=XH-N
  H   -0.013589514   0.182032478   0.186468164
  I    0.982400190  -1.024781992  -0.248653742
  H    1.391174318  -0.370824387   3.111886937
  H    1.387640683   0.115283220   4.835428568
  H   -0.070514327  -0.625224102   4.111805692
  C    0.794161053   0.008709142   3.936136486
  O    0.339270400   1.363843718   3.621686587
  C   -0.344329752   1.476459743   2.546459879
  N   -0.955594581   1.598777343   1.573605784
