9
charge=0 charge_a=0 charge_b=0 selection_a=1-2 selection_b=3-9 scaling=1.05 benchmark_Eint=-4.126 benchmark_unit=kcal/mol group=XH-N
  H   -0.013589514   0.182032478   0.186468164
  I    0.982400190  -1.024781992  -0.248653742
  H    1.344074065  -0.299987144   3.181243818
  H    1.340540430   0.186120463   4.904785449
  H   -0.117614580  -0.554386859   4.181162573
  C    0.747060800   0.079546385   4.005493367
  O    0.292170147   1.434680961   3.691043468
  C   -0.391430005   1.547296986   2.615816760
  N   -1.002694834   1.669614586   1.642962665
