9
charge=0 charge_a=0 charge_b=0 selection_a=1-2 selection_b=3-9 scaling=2.0 benchmark_Eint=-0.743 benchmark_unit=kcal/mol group=XH-N
  H   -0.013589514   0.182032478   0.186468164
  I    0.982400190  -1.024781992  -0.248653742
  H    0.449169251   1.045920478   4.499024557
  H    0.445635616   1.532028085   6.222566188
  H   -1.012519394   0.791520763   5.498943312
  C   -0.147844014   1.425454007   5.323274106
  O   -0.602734667   2.780588583   5.008824207
  C   -1.286334819   2.893204608   3.933597499
  N   -1.897599648   3.015522208   2.960743404
