9
charge=0 charge_a=0 charge_b=0 selection_a=1-2 selection_b=3-9 scaling=0.85 benchmark_Eint=-2.610 benchmark_unit=kcal/mol group=XH-N
  H   -0.013589514   0.182032478   0.186468164
  I    0.982400190  -1.024781992  -0.248653742
  H    1.532475078  -0.583336117   2.903816294
  H    1.528941443  -0.097228510   4.627357925
  H    0.070786433  -0.837735832   3.903735049
  C    0.935461813  -0.203802588   3.728065843
  O    0.480571160   1.151331988   3.413615944
  C   -0.203028992   1.263948013   2.338389236
  N   -0.814293821   1.386265613   1.365535141
