9
charge=0 charge_a=0 charge_b=0 selection_a=1-2 selection_b=3-9 scaling=0.9 benchmark_Eint=-3.494 benchmark_unit=kcal/mol group=XH-N
  H   -0.013589514   0.182032478   0.186468164
  I    0.982400190  -1.024781992  -0.248653742
  H    1.485374825  -0.512498874   2.973173175
  H    1.481841190  -0.026391266   4.696714806
  H    0.023686180  -0.766898588   3.973091930
  C    0.888361560  -0.132965344   3.797422724
  O    0.433470907   1.222169232   3.482972825
  C   -0.250129245   1.334785256   2.407746117
  N   -0.861394074   1.457102856   1.434892022
