14
charge=0 charge_a=0 charge_b=0 selection_a=1-4 selection_b=5-14 scaling=1.1 benchmark_Eint=-3.406 benchmark_unit=kcal/mol group=XH-O
  P   -0.702610404  -0.519981065   1.562754175
  F   -0.299160884  -1.309880932   0.227220851
  F   -1.656414137   0.584389133   0.910357034
  H    0.461078219   0.299454524   1.593267503
  H    1.556648545  -1.285388061  -2.320881298
  H    3.139420003  -0.608139707  -1.879872281
  H    2.328416127  -0.133859673  -3.396774292
  H   -0.265352795   1.967226998  -1.578826206
  H   -0.476130748   0.424524420  -2.441525687
  C    2.183450830  -0.392430860  -2.347223204
  C    1.481405101   0.724282352  -1.611757029
  O    1.911937011   1.171074404  -0.572444079
  C    0.209890605   1.246663559  -2.236709331
  H    0.439819059   1.718520543  -3.193930054
