14
charge=0 charge_a=0 charge_b=0 selection_a=1-4 selection_b=5-14 scaling=1.0 benchmark_Eint=-3.794 benchmark_unit=kcal/mol group=XH-O
  P   -0.702610404  -0.519981065   1.562754175
  F   -0.299160884  -1.309880932   0.227220851
  F   -1.656414137   0.584389133   0.910357034
  H    0.461078219   0.299454524   1.593267503
  H    1.424752291  -1.364626232  -2.123998427
  H    3.007523749  -0.687377878  -1.682989410
  H    2.196519873  -0.213097844  -3.199891421
  H   -0.397249049   1.887988827  -1.381943335
  H   -0.608027002   0.345286249  -2.244642816
  C    2.051554576  -0.471669031  -2.150340333
  C    1.349508847   0.645044181  -1.414874158
  O    1.780040757   1.091836233  -0.375561208
  C    0.077994351   1.167425388  -2.039826460
  H    0.307922805   1.639282372  -2.997047183
