14
charge=0 charge_a=0 charge_b=0 selection_a=1-4 selection_b=5-14 scaling=0.9 benchmark_Eint=-3.245 benchmark_unit=kcal/mol group=XH-O
  P   -0.702610404  -0.519981065   1.562754175
  F   -0.299160884  -1.309880932   0.227220851
  F   -1.656414137   0.584389133   0.910357034
  H    0.461078219   0.299454524   1.593267503
  H    1.292856037  -1.443864403  -1.927115556
  H    2.875627495  -0.766616049  -1.486106539
  H    2.064623619  -0.292336015  -3.003008550
  H   -0.529145303   1.808750656  -1.185060464
  H   -0.739923256   0.266048078  -2.047759945
  C    1.919658322  -0.550907202  -1.953457462
  C    1.217612593   0.565806010  -1.217991287
  O    1.648144503   1.012598062  -0.178678337
  C   -0.053901903   1.088187217  -1.842943589
  H    0.176026551   1.560044201  -2.800164312
