14
charge=0 charge_a=0 charge_b=0 selection_a=1-4 selection_b=5-14 scaling=1.05 benchmark_Eint=-3.658 benchmark_unit=kcal/mol group=XH-O
  P   -0.702610404  -0.519981065   1.562754175
  F   -0.299160884  -1.309880932   0.227220851
  F   -1.656414137   0.584389133   0.910357034
  H    0.461078219   0.299454524   1.593267503
  H    1.490700418  -1.325007147  -2.222439863
  H    3.073471876  -0.647758793  -1.781430846
  H    2.262468000  -0.173478759  -3.298332857
  H   -0.331300922   1.927607912  -1.480384771
  H   -0.542078875   0.384905334  -2.343084252
  C    2.117502703  -0.432049946  -2.248781769
  C    1.415456974   0.684663266  -1.513315594
  O    1.845988884   1.131455318  -0.474002644
  C    0.143942478   1.207044473  -2.138267896
  H    0.373870932   1.678901457  -3.095488619
