14
charge=0 charge_a=0 charge_b=0 selection_a=1-4 selection_b=5-14 scaling=1.25 benchmark_Eint=-2.492 benchmark_unit=kcal/mol group=XH-O
  P   -0.702610404  -0.519981065   1.562754175
  F   -0.299160884  -1.309880932   0.227220851
  F   -1.656414137   0.584389133   0.910357034
  H    0.461078219   0.299454524   1.593267503
  H    1.754492926  -1.166530805  -2.616205605
  H    3.337264384  -0.489282451  -2.175196588
  H    2.526260508  -0.015002417  -3.692098599
  H   -0.067508414   2.086084254  -1.874150513
  H   -0.278286368   0.543381676  -2.736849994
  C    2.381295210  -0.273573604  -2.642547511
  C    1.679249482   0.843139608  -1.907081336
  O    2.109781392   1.289931660  -0.867768386
  C    0.407734986   1.365520815  -2.532033638
  H    0.637663440   1.837377799  -3.489254361
