14
charge=0 charge_a=0 charge_b=0 selection_a=1-6 selection_b=7-14 scaling=0.8 benchmark_Eint=-0.636 benchmark_unit=kcal/mol group=XH-O
  H    2.582377616  -1.165915846   0.813866905
  H    1.837728008  -2.002950431   2.183483678
  H    1.185001484  -0.448924302   1.646136014
  H    0.406958227  -1.368265596  -0.711452246
  C    1.643349606  -1.377172665   1.316463701
  S    0.519417506  -2.316211534   0.232847062
  H   -0.225368119   2.673423632  -1.320218456
  H   -1.273928972  -0.550666756   0.793608664
  H   -1.345431048   1.051929131   1.576852483
  H   -2.531906891   0.633008982   0.356352032
  O    0.241580313   0.461731326  -1.034860396
  C   -0.597000035   1.066488634  -0.416081207
  O   -0.831453711   2.381867021  -0.625023337
  C   -1.490577832   0.502261422   0.647744369
