14
charge=0 charge_a=0 charge_b=0 selection_a=1-6 selection_b=7-14 scaling=0.85 benchmark_Eint=-2.168 benchmark_unit=kcal/mol group=XH-O
  H    2.582377616  -1.165915846   0.813866905
  H    1.837728008  -2.002950431   2.183483678
  H    1.185001484  -0.448924302   1.646136014
  H    0.406958227  -1.368265596  -0.711452246
  C    1.643349606  -1.377172665   1.316463701
  S    0.519417506  -2.316211534   0.232847062
  H   -0.235704238   2.787798439  -1.340431466
  H   -1.284265091  -0.436291949   0.773395654
  H   -1.355767167   1.166303938   1.556639473
  H   -2.542243010   0.747383789   0.336139022
  O    0.231244194   0.576106133  -1.055073406
  C   -0.607336154   1.180863441  -0.436294217
  O   -0.841789830   2.496241828  -0.645236347
  C   -1.500913951   0.616636229   0.627531359
