14
charge=0 charge_a=0 charge_b=0 selection_a=1-6 selection_b=7-14 scaling=0.9 benchmark_Eint=-3.038 benchmark_unit=kcal/mol group=XH-O
  H    2.582377616  -1.165915846   0.813866905
  H    1.837728008  -2.002950431   2.183483678
  H    1.185001484  -0.448924302   1.646136014
  H    0.406958227  -1.368265596  -0.711452246
  C    1.643349606  -1.377172665   1.316463701
  S    0.519417506  -2.316211534   0.232847062
  H   -0.246040358   2.902173247  -1.360644475
  H   -1.294601211  -0.321917141   0.753182645
  H   -1.366103287   1.280678746   1.536426464
  H   -2.552579130   0.861758597   0.315926013
  O    0.220908074   0.690480941  -1.075286415
  C   -0.617672274   1.295238249  -0.456507226
  O   -0.852125950   2.610616636  -0.665449356
  C   -1.511250071   0.731011037   0.607318350
