12
charge=0 charge_a=0 charge_b=0 selection_a=1-3 selection_b=4-12 scaling=0.85 benchmark_Eint=-2.949 benchmark_unit=kcal/mol group=XH-O
  H    1.332777940   0.616259671  -0.147552513
  H    1.898124798   1.946242462  -1.461539550
  S    1.781280814   1.891357336  -0.127119785
  H   -2.604324613  -1.784033910  -0.091099508
  H   -1.242474619  -2.626392388  -0.747363991
  H   -1.088296913   0.322945156   1.837748204
  H   -1.018472288   1.277042480   0.366827779
  H   -2.489031338   0.353699626   0.755149335
  O    0.418408822  -0.876050139  -0.165603068
  C   -0.777081490  -0.817612178   0.072190964
  N   -1.622296771  -1.817720090  -0.286970999
  C   -1.401905604   0.353959391   0.794762764
