12
charge=0 charge_a=0 charge_b=0 selection_a=1-3 selection_b=4-12 scaling=1.1 benchmark_Eint=-4.399 benchmark_unit=kcal/mol group=XH-O
  H    1.332777940   0.616259671  -0.147552513
  H    1.898124798   1.946242462  -1.461539550
  S    1.781280814   1.891357336  -0.127119785
  H   -2.873256706  -2.222948560  -0.096408495
  H   -1.511406712  -3.065307038  -0.752672978
  H   -1.357229006  -0.115969494   1.832439217
  H   -1.287404381   0.838127830   0.361518792
  H   -2.757963431  -0.085215024   0.749840348
  O    0.149476729  -1.314964789  -0.170912055
  C   -1.046013583  -1.256526828   0.066881977
  N   -1.891228864  -2.256634740  -0.292279986
  C   -1.670837697  -0.084955259   0.789453777
