12
charge=0 charge_a=0 charge_b=0 selection_a=1-3 selection_b=4-12 scaling=0.8 benchmark_Eint=-1.321 benchmark_unit=kcal/mol group=XH-O
  H    1.332777940   0.616259671  -0.147552513
  H    1.898124798   1.946242462  -1.461539550
  S    1.781280814   1.891357336  -0.127119785
  H   -2.550538194  -1.696250980  -0.090037711
  H   -1.188688200  -2.538609458  -0.746302194
  H   -1.034510494   0.410728086   1.838810001
  H   -0.964685869   1.364825410   0.367889576
  H   -2.435244919   0.441482556   0.756211132
  O    0.472195241  -0.788267209  -0.164541271
  C   -0.723295071  -0.729829248   0.073252761
  N   -1.568510352  -1.729937160  -0.285909202
  C   -1.348119185   0.441742321   0.795824561
