12
charge=0 charge_a=0 charge_b=0 selection_a=1-3 selection_b=4-12 scaling=1.0 benchmark_Eint=-4.586 benchmark_unit=kcal/mol group=XH-O
  H    1.332777940   0.616259671  -0.147552513
  H    1.898124798   1.946242462  -1.461539550
  S    1.781280814   1.891357336  -0.127119785
  H   -2.765683869  -2.047382700  -0.094284900
  H   -1.403833875  -2.889741178  -0.750549383
  H   -1.249656169   0.059596366   1.834562812
  H   -1.179831544   1.013693690   0.363642387
  H   -2.650390594   0.090350836   0.751963943
  O    0.257049566  -1.139398929  -0.168788460
  C   -0.938440746  -1.080960968   0.069005572
  N   -1.783656027  -2.081068880  -0.290156391
  C   -1.563264860   0.090610601   0.791577372
