11
charge=0 charge_a=0 charge_b=0 selection_a=1-3 selection_b=4-11 scaling=1.0 benchmark_Eint=-3.558 benchmark_unit=kcal/mol group=XH-O
  H    1.425969998   0.667220724  -0.246014418
  H    2.431068551   1.692112706   1.070775682
  S    1.867313537   1.933810349  -0.121553023
  H   -1.247077974  -2.879191980  -0.332204156
  H   -0.984743417   1.006402387   0.557228392
  H   -2.498525857   0.397988377  -0.157853986
  H   -2.098576747  -0.021530437   1.497481175
  O    0.199089307  -1.120209230  -0.306402269
  C   -0.958035144  -1.056165621   0.027149971
  O   -1.771219813  -2.133981808  -0.007008845
  C   -1.672018818   0.168901527   0.513781361
