11
charge=0 charge_a=0 charge_b=0 selection_a=1-3 selection_b=4-11 scaling=1.25 benchmark_Eint=-2.696 benchmark_unit=kcal/mol group=XH-O
  H    1.425969998   0.667220724  -0.246014418
  H    2.431068551   1.692112706   1.070775682
  S    1.867313537   1.933810349  -0.121553023
  H   -1.553798147  -3.326049468  -0.347301119
  H   -1.291463590   0.559544898   0.542131429
  H   -2.805246030  -0.048869111  -0.172950949
  H   -2.405296920  -0.468387926   1.482384212
  O   -0.107630866  -1.567066718  -0.321499232
  C   -1.264755317  -1.503023110   0.012053008
  O   -2.077939986  -2.580839296  -0.022105808
  C   -1.978738991  -0.277955962   0.498684398
