11
charge=0 charge_a=0 charge_b=0 selection_a=1-3 selection_b=4-11 scaling=1.1 benchmark_Eint=-3.391 benchmark_unit=kcal/mol group=XH-O
  H    1.425969998   0.667220724  -0.246014418
  H    2.431068551   1.692112706   1.070775682
  S    1.867313537   1.933810349  -0.121553023
  H   -1.369766043  -3.057934975  -0.338242941
  H   -1.107431486   0.827659392   0.551189607
  H   -2.621213926   0.219245382  -0.163892771
  H   -2.221264816  -0.200273432   1.491442390
  O    0.076401238  -1.298952225  -0.312441054
  C   -1.080723213  -1.234908616   0.021111186
  O   -1.893907882  -2.312724803  -0.013047630
  C   -1.794706887  -0.009841468   0.507742576
