11
charge=0 charge_a=0 charge_b=0 selection_a=1-3 selection_b=4-11 scaling=0.8 benchmark_Eint=-0.554 benchmark_unit=kcal/mol group=XH-O
  H    1.425969998   0.667220724  -0.246014418
  H    2.431068551   1.692112706   1.070775682
  S    1.867313537   1.933810349  -0.121553023
  H   -1.001701836  -2.521705989  -0.320126586
  H   -0.739367279   1.363888378   0.569305962
  H   -2.253149719   0.755474368  -0.145776416
  H   -1.853200609   0.335955554   1.509558745
  O    0.444465445  -0.762723239  -0.294324699
  C   -0.712659006  -0.698679630   0.039227541
  O   -1.525843675  -1.776495817   0.005068725
  C   -1.426642680   0.526387518   0.525858931
