12
charge=0 charge_a=0 charge_b=0 selection_a=1-3 selection_b=4-12 scaling=1.0 benchmark_Eint=-3.533 benchmark_unit=kcal/mol group=XH-O
  H   -0.253890945   0.850576072   0.000000000
  H   -1.208290999   2.552046514   0.000000000
  S    0.073735970   2.159836065   0.000000000
  H   -0.335936753  -1.270897277   2.021782129
  H    0.034672352  -2.823201265   1.235550651
  H    1.234613346  -1.508835488   1.223927594
  H   -0.335936753  -1.270897277  -2.021782129
  H    0.034672352  -2.823201265  -1.235550651
  H    1.234613346  -1.508835488  -1.223927594
  C    0.164635953  -1.737752802   1.177779600
  O   -0.419910704  -1.218140859   0.000000000
  C    0.164635953  -1.737752802  -1.177779600
