12
charge=0 charge_a=0 charge_b=0 selection_a=1-3 selection_b=4-12 scaling=0.95 benchmark_Eint=-3.389 benchmark_unit=kcal/mol group=XH-O
  H   -0.253890945   0.850576072   0.000000000
  H   -1.208290999   2.552046514   0.000000000
  S    0.073735970   2.159836065   0.000000000
  H   -0.327635765  -1.167461430   2.021782129
  H    0.042973340  -2.719765418   1.235550651
  H    1.242914334  -1.405399641   1.223927594
  H   -0.327635765  -1.167461430  -2.021782129
  H    0.042973340  -2.719765418  -1.235550651
  H    1.242914334  -1.405399641  -1.223927594
  C    0.172936941  -1.634316955   1.177779600
  O   -0.411609716  -1.114705012   0.000000000
  C    0.172936941  -1.634316955  -1.177779600
