12
charge=0 charge_a=0 charge_b=0 selection_a=1-3 selection_b=4-12 scaling=1.1 benchmark_Eint=-3.349 benchmark_unit=kcal/mol group=XH-O
  H   -0.253890945   0.850576072   0.000000000
  H   -1.208290999   2.552046514   0.000000000
  S    0.073735970   2.159836065   0.000000000
  H   -0.352538729  -1.477768970   2.021782129
  H    0.018070376  -3.030072958   1.235550651
  H    1.218011370  -1.715707181   1.223927594
  H   -0.352538729  -1.477768970  -2.021782129
  H    0.018070376  -3.030072958  -1.235550651
  H    1.218011370  -1.715707181  -1.223927594
  C    0.148033977  -1.944624495   1.177779600
  O   -0.436512680  -1.425012552   0.000000000
  C    0.148033977  -1.944624495  -1.177779600
