13
charge=0 charge_a=0 charge_b=0 selection_a=1-3 selection_b=4-13 scaling=1.5 benchmark_Eint=-2.839 benchmark_unit=kcal/mol group=XH-O
  H    1.432615055   0.721266972   0.158637111
  H    1.694551270   2.056806281   1.567407355
  S    1.516825825   2.071830291   0.238599361
  H   -1.479183780  -1.900090852   2.031124956
  H   -2.858239570  -1.385155876   1.029388964
  H   -1.392920894  -0.352590088   1.143038893
  H   -1.157231627  -1.479686608  -2.495727306
  H   -1.242552068  -0.121990856  -1.338340755
  C   -1.774540720  -1.371084370   1.129033080
  S   -1.037390968  -2.265494520  -0.265954984
  O    0.444205679  -2.104031984  -0.149883012
  C   -1.591779539  -1.126876408  -1.564340866
  H   -2.677884952  -1.159931086  -1.626480572
