13
charge=0 charge_a=0 charge_b=0 selection_a=1-3 selection_b=4-13 scaling=1.25 benchmark_Eint=-4.453 benchmark_unit=kcal/mol group=XH-O
  H    1.432615055   0.721266972   0.158637111
  H    1.694551270   2.056806281   1.567407355
  S    1.516825825   2.071830291   0.238599361
  H   -1.314448884  -1.429207693   2.082544976
  H   -2.693504674  -0.914272717   1.080808984
  H   -1.228185998   0.118293072   1.194458914
  H   -0.992496731  -1.008803448  -2.444307286
  H   -1.077817172   0.348892303  -1.286920734
  C   -1.609805824  -0.900201211   1.180453100
  S   -0.872656072  -1.794611361  -0.214534964
  O    0.608940575  -1.633148824  -0.098462992
  C   -1.427044643  -0.655993249  -1.512920846
  H   -2.513150056  -0.689047926  -1.575060552
