13
charge=0 charge_a=0 charge_b=0 selection_a=1-3 selection_b=4-13 scaling=1.0 benchmark_Eint=-5.574 benchmark_unit=kcal/mol group=XH-O
  H    1.432615055   0.721266972   0.158637111
  H    1.694551270   2.056806281   1.567407355
  S    1.516825825   2.071830291   0.238599361
  H   -1.149713988  -0.958324534   2.133964997
  H   -2.528769778  -0.443389558   1.132229005
  H   -1.063451102   0.589176231   1.245878934
  H   -0.827761835  -0.537920289  -2.392887265
  H   -0.913082276   0.819775462  -1.235500714
  C   -1.445070928  -0.429318052   1.231873121
  S   -0.707921176  -1.323728202  -0.163114943
  O    0.773675471  -1.162265665  -0.047042971
  C   -1.262309747  -0.185110090  -1.461500825
  H   -2.348415160  -0.218164767  -1.523640531
