13
charge=0 charge_a=0 charge_b=0 selection_a=1-3 selection_b=4-13 scaling=1.05 benchmark_Eint=-5.552 benchmark_unit=kcal/mol group=XH-O
  H    1.432615055   0.721266972   0.158637111
  H    1.694551270   2.056806281   1.567407355
  S    1.516825825   2.071830291   0.238599361
  H   -1.182660967  -1.052501166   2.123680993
  H   -2.561716757  -0.537566190   1.121945001
  H   -1.096398081   0.494999599   1.235594930
  H   -0.860708814  -0.632096921  -2.403171269
  H   -0.946029255   0.725598830  -1.245784718
  C   -1.478017907  -0.523494684   1.221589117
  S   -0.740868155  -1.417904834  -0.173398947
  O    0.740728492  -1.256442297  -0.057326975
  C   -1.295256726  -0.279286722  -1.471784829
  H   -2.381362139  -0.312341399  -1.533924535
