9
charge=0 charge_a=0 charge_b=0 selection_a=1-3 selection_b=4-9 scaling=0.85 benchmark_Eint=-2.005 benchmark_unit=kcal/mol group=XH-O
  H    0.605915701   0.162904659  -0.307556747
  H    2.150876743   0.627823125   0.784025773
  S    1.243552707   1.292942979   0.054646191
  O   -0.561040301  -1.202207945  -0.435503765
  H   -0.847707564  -1.724166768  -1.187629971
  C   -1.681873056  -0.913328672   0.396643808
  H   -1.320262263  -0.266940115   1.191974642
  H   -2.467680336  -0.386297406  -0.148859492
  H   -2.097447155  -1.820384223   0.840951940
