9
charge=0 charge_a=0 charge_b=0 selection_a=1-3 selection_b=4-9 scaling=1.0 benchmark_Eint=-3.368 benchmark_unit=kcal/mol group=XH-O
  H    0.605915701   0.162904659  -0.307556747
  H    2.150876743   0.627823125   0.784025773
  S    1.243552707   1.292942979   0.054646191
  O   -0.766973713  -1.443110169  -0.458082650
  H   -1.053640976  -1.965068992  -1.210208856
  C   -1.887806468  -1.154230896   0.374064923
  H   -1.526195675  -0.507842339   1.169395757
  H   -2.673613748  -0.627199630  -0.171438377
  H   -2.303380567  -2.061286447   0.818373055
