9
charge=0 charge_a=0 charge_b=0 selection_a=1-3 selection_b=4-9 scaling=1.1 benchmark_Eint=-3.176 benchmark_unit=kcal/mol group=XH-O
  H    0.605915701   0.162904659  -0.307556747
  H    2.150876743   0.627823125   0.784025773
  S    1.243552707   1.292942979   0.054646191
  O   -0.904262654  -1.603711652  -0.473135240
  H   -1.190929917  -2.125670475  -1.225261446
  C   -2.025095409  -1.314832379   0.359012333
  H   -1.663484616  -0.668443822   1.154343167
  H   -2.810902689  -0.787801113  -0.186490967
  H   -2.440669508  -2.221887930   0.803320465
