9
charge=0 charge_a=0 charge_b=0 selection_a=1-3 selection_b=4-9 scaling=1.5 benchmark_Eint=-1.485 benchmark_unit=kcal/mol group=XH-O
  H    0.605915701   0.162904659  -0.307556747
  H    2.150876743   0.627823125   0.784025773
  S    1.243552707   1.292942979   0.054646191
  O   -1.453418420  -2.246117583  -0.533345602
  H   -1.740085683  -2.768076406  -1.285471808
  C   -2.574251175  -1.957238310   0.298801972
  H   -2.212640382  -1.310849753   1.094132806
  H   -3.360058455  -1.430207044  -0.246701328
  H   -2.989825274  -2.864293861   0.743110104
