15
charge=0 charge_a=0 charge_b=0 selection_a=1-3 selection_b=4-15 scaling=0.9 benchmark_Eint=-4.132 benchmark_unit=kcal/mol group=XH-O
  H    1.519654886   0.733178700  -0.086047712
  H    2.851270071   1.498867544  -1.292436880
  S    2.167753388   1.910591379  -0.215364727
  C   -1.112541349  -2.583758378  -0.002373931
  H   -0.704251838  -3.020164260  -0.911894206
  H   -2.191168480  -2.727896484   0.009722196
  H   -0.672038689  -3.112311116   0.840893685
  C   -0.694972965  -1.131631048   0.066367045
  O    0.483590231  -0.804281828   0.056733038
  N   -1.694929431  -0.223044488   0.138236181
  H   -2.643466567  -0.547149628   0.159371713
  C   -1.434323461   1.203439640   0.222161524
  H   -0.884655714   1.446821348   1.130909442
  H   -0.842361953   1.540470816  -0.625998657
  H   -2.382987625   1.732487272   0.229434781
