15
charge=0 charge_a=0 charge_b=0 selection_a=1-3 selection_b=4-15 scaling=0.95 benchmark_Eint=-4.608 benchmark_unit=kcal/mol group=XH-O
  H    1.519654886   0.733178700  -0.086047712
  H    2.851270071   1.498867544  -1.292436880
  S    2.167753388   1.910591379  -0.215364727
  C   -1.170100496  -2.669172852   0.005558333
  H   -0.761810986  -3.105578733  -0.903961942
  H   -2.248727628  -2.813310958   0.017654460
  H   -0.729597836  -3.197725589   0.848825949
  C   -0.752532112  -1.217045521   0.074299309
  O    0.426031084  -0.889696301   0.064665302
  N   -1.752488578  -0.308458962   0.146168445
  H   -2.701025714  -0.632564102   0.167303977
  C   -1.491882608   1.118025166   0.230093788
  H   -0.942214862   1.361406874   1.138841706
  H   -0.899921100   1.455056342  -0.618066393
  H   -2.440546772   1.647072799   0.237367045
