15
charge=0 charge_a=0 charge_b=0 selection_a=1-3 selection_b=4-15 scaling=1.1 benchmark_Eint=-4.547 benchmark_unit=kcal/mol group=XH-O
  H    1.519654886   0.733178700  -0.086047712
  H    2.851270071   1.498867544  -1.292436880
  S    2.167753388   1.910591379  -0.215364727
  C   -1.342777939  -2.925416274   0.029355125
  H   -0.934488428  -3.361822154  -0.880165150
  H   -2.421405070  -3.069554380   0.041451252
  H   -0.902275279  -3.453969010   0.872622741
  C   -0.925209555  -1.473288942   0.098096101
  O    0.253353641  -1.145939722   0.088462094
  N   -1.925166021  -0.564702384   0.169965237
  H   -2.873703157  -0.888807524   0.191100769
  C   -1.664560051   0.861781744   0.253890580
  H   -1.114892304   1.105163452   1.162638498
  H   -1.072598543   1.198812920  -0.594269601
  H   -2.613224215   1.390829378   0.261163837
