8
charge=0 charge_a=0 charge_b=0 selection_a=1-3 selection_b=4-8 scaling=1.05 benchmark_Eint=-3.144 benchmark_unit=kcal/mol group=XH-O
  H    1.836567763   1.964089921  -0.037249760
  H    1.105589524   3.674202586  -0.595700393
  S    1.810688642   2.687869208  -1.168211245
  P   -0.132339597  -0.501196433   0.529207158
 Cl   -0.959847477  -2.089666356   1.448545972
 Cl    0.422855115  -1.215747490  -1.264813832
 Cl   -1.699941439   0.688710614   0.119450126
  O    0.933846911   0.137318598   1.285435040
