8
charge=0 charge_a=0 charge_b=0 selection_a=1-3 selection_b=4-8 scaling=1.0 benchmark_Eint=-3.180 benchmark_unit=kcal/mol group=XH-O
  H    1.836567763   1.964089921  -0.037249760
  H    1.105589524   3.674202586  -0.595700393
  S    1.810688642   2.687869208  -1.168211245
  P   -0.089352890  -0.414207322   0.466222168
 Cl   -0.916860770  -2.002677245   1.385560982
 Cl    0.465841822  -1.128758379  -1.327798823
 Cl   -1.656954732   0.775699725   0.056465135
  O    0.976833618   0.224307709   1.222450050
