8
charge=0 charge_a=0 charge_b=0 selection_a=1-3 selection_b=4-8 scaling=1.1 benchmark_Eint=-3.002 benchmark_unit=kcal/mol group=XH-O
  H    1.836567763   1.964089921  -0.037249760
  H    1.105589524   3.674202586  -0.595700393
  S    1.810688642   2.687869208  -1.168211245
  P   -0.175326304  -0.588185543   0.592192149
 Cl   -1.002834184  -2.176655466   1.511530963
 Cl    0.379868408  -1.302736600  -1.201828842
 Cl   -1.742928146   0.601721504   0.182435116
  O    0.890860204   0.050329488   1.348420031
