19
charge=0 charge_a=0 charge_b=0 selection_a=1-3 selection_b=4-19 scaling=1.25 benchmark_Eint=-2.288 benchmark_unit=kcal/mol group=XH-O
  H    1.861655985   1.699138030   0.123706265
  H    2.120612929   0.282395216   1.402077528
  S    2.842429883   1.322894867   0.959929924
  H    0.770989810  -2.342550526  -2.312703960
  H    1.084413672  -0.645582249  -1.887520432
  H    1.321881063  -1.920269603  -0.677196448
  H   -0.887987696   0.122038886   3.040694534
  H   -3.380364232  -0.992471207  -2.422854462
  H   -1.121675928   1.419067309   1.854811748
  H   -2.468628651   0.324552907   2.252659530
  H   -4.571990732  -0.104091002  -1.449496202
  O   -2.806245707  -0.457342464  -0.501991826
  P   -1.211214322  -0.141703625  -0.451025294
  O   -0.662262235  -1.510573504  -1.130137686
  C    0.709848501  -1.602126272  -1.519990666
  O   -0.958064162  -0.529435173   1.113399516
  C   -1.390303136   0.393633655   2.116761112
  C   -3.519672295  -0.182121814  -1.707809094
  H   -3.190043702   0.756344296  -2.159067064
