19
charge=0 charge_a=0 charge_b=0 selection_a=1-3 selection_b=4-19 scaling=1.5 benchmark_Eint=-1.225 benchmark_unit=kcal/mol group=XH-O
  H    1.861655985   1.699138030   0.123706265
  H    2.120612929   0.282395216   1.402077528
  S    2.842429883   1.322894867   0.959929924
  H    0.155254392  -2.504916604  -2.370439562
  H    0.468678254  -0.807948326  -1.945256035
  H    0.706145644  -2.082635680  -0.734932051
  H   -1.503723114  -0.040327192   2.982958932
  H   -3.996099650  -1.154837284  -2.480590064
  H   -1.737411346   1.256701232   1.797076146
  H   -3.084364070   0.162186830   2.194923928
  H   -5.187726150  -0.266457080  -1.507231804
  O   -3.421981126  -0.619708542  -0.559727428
  P   -1.826949740  -0.304069702  -0.508760896
  O   -1.277997654  -1.672939582  -1.187873288
  C    0.094113082  -1.764492350  -1.577726269
  O   -1.573799580  -0.691801250   1.055663913
  C   -2.006038554   0.231267578   2.059025509
  C   -4.135407714  -0.344487892  -1.765544696
  H   -3.805779120   0.593978218  -2.216802667
