19
charge=0 charge_a=0 charge_b=0 selection_a=1-3 selection_b=4-19 scaling=2.0 benchmark_Eint=-0.330 benchmark_unit=kcal/mol group=XH-O
  H    1.861655985   1.699138030   0.123706265
  H    2.120612929   0.282395216   1.402077528
  S    2.842429883   1.322894867   0.959929924
  H   -1.076216445  -2.829648759  -2.485910767
  H   -0.762792583  -1.132680482  -2.060727240
  H   -0.525325192  -2.407367836  -0.850403256
  H   -2.735193951  -0.365059347   2.867487727
  H   -5.227570487  -1.479569440  -2.596061269
  H   -2.968882183   0.931969076   1.681604941
  H   -4.315834906  -0.162545326   2.079452723
  H   -6.419196987  -0.591189235  -1.622703009
  O   -4.653451962  -0.944440697  -0.675198633
  P   -3.058420577  -0.628801858  -0.624232101
  O   -2.509468490  -1.997671737  -1.303344493
  C   -1.137357754  -2.089224505  -1.693197474
  O   -2.805270417  -1.016533406   0.940192708
  C   -3.237509391  -0.093464578   1.943554304
  C   -5.366878550  -0.669220047  -1.881015901
  H   -5.037249957   0.269246063  -2.332273872
