19
charge=0 charge_a=0 charge_b=0 selection_a=1-3 selection_b=4-19 scaling=0.95 benchmark_Eint=-3.124 benchmark_unit=kcal/mol group=XH-O
  H    1.861655985   1.699138030   0.123706265
  H    2.120612929   0.282395216   1.402077528
  S    2.842429883   1.322894867   0.959929924
  H    1.509872312  -2.147711232  -2.243421236
  H    1.823296174  -0.450742955  -1.818237710
  H    2.060763565  -1.725430309  -0.607913726
  H   -0.149105194   0.316878180   3.109977258
  H   -2.641481730  -0.797631913  -2.353571738
  H   -0.382793426   1.613906603   1.924094472
  H   -1.729746149   0.519392201   2.321942254
  H   -3.833108230   0.090748292  -1.380213478
  O   -2.067363205  -0.262503170  -0.432709102
  P   -0.472331820   0.053135669  -0.381742570
  O    0.076620267  -1.315734210  -1.060854962
  C    1.448731003  -1.407286978  -1.450707944
  O   -0.219181660  -0.334595879   1.182682238
  C   -0.651420634   0.588472949   2.186043834
  C   -2.780789793   0.012717480  -1.638526370
  H   -2.451161200   0.951183590  -2.089784342
