19
charge=0 charge_a=0 charge_b=0 selection_a=1-3 selection_b=4-19 scaling=0.85 benchmark_Eint=-1.695 benchmark_unit=kcal/mol group=XH-O
  H    1.861655985   1.699138030   0.123706265
  H    2.120612929   0.282395216   1.402077528
  S    2.842429883   1.322894867   0.959929924
  H    1.756166479  -2.082764801  -2.220326996
  H    2.069590341  -0.385796524  -1.795143468
  H    2.307057732  -1.660483878  -0.584819484
  H    0.097188973   0.381824611   3.133071498
  H   -2.395187563  -0.732685482  -2.330477498
  H   -0.136499259   1.678853034   1.947188712
  H   -1.483451982   0.584338632   2.345036494
  H   -3.586814063   0.155694723  -1.357119238
  O   -1.821069038  -0.197556739  -0.409614862
  P   -0.226037653   0.118082100  -0.358648330
  O    0.322914434  -1.250787779  -1.037760722
  C    1.695025170  -1.342340547  -1.427613702
  O    0.027112507  -0.269649448   1.205776480
  C   -0.405126467   0.653419380   2.209138076
  C   -2.534495626   0.077663911  -1.615432130
  H   -2.204867033   1.016130021  -2.066690100
