19
charge=0 charge_a=0 charge_b=0 selection_a=1-3 selection_b=4-19 scaling=0.9 benchmark_Eint=-2.661 benchmark_unit=kcal/mol group=XH-O
  H    1.861655985   1.699138030   0.123706265
  H    2.120612929   0.282395216   1.402077528
  S    2.842429883   1.322894867   0.959929924
  H    1.633019395  -2.115238017  -2.231874116
  H    1.946443257  -0.418269740  -1.806690589
  H    2.183910648  -1.692957094  -0.596366605
  H   -0.025958111   0.349351395   3.121524378
  H   -2.518334647  -0.765158698  -2.342024618
  H   -0.259646343   1.646379818   1.935641592
  H   -1.606599066   0.551865416   2.333489374
  H   -3.709961147   0.123221507  -1.368666358
  O   -1.944216122  -0.230029955  -0.421161982
  P   -0.349184737   0.085608884  -0.370195450
  O    0.199767350  -1.283260995  -1.049307842
  C    1.571878086  -1.374813763  -1.439160823
  O   -0.096034577  -0.302122664   1.194229359
  C   -0.528273551   0.620946164   2.197590955
  C   -2.657642710   0.045190695  -1.626979250
  H   -2.328014117   0.983656805  -2.078237221
