11
charge=0 charge_a=0 charge_b=0 selection_a=1-2 selection_b=3-11 scaling=1.25 benchmark_Eint=-12.744 benchmark_unit=kcal/mol group=XH-O
  H   -0.064731809   0.051850180  -1.624618161
  F    0.088838349   0.822032063  -2.190519980
  H    0.387528934   1.282588370   1.842910007
  H    0.305239668   1.282584678   0.103920437
  H   -1.175434978  -1.648601237   2.385665241
  H    0.531749572  -2.048318940   2.304894197
  H    0.014906904  -0.571477702   3.143344551
  O   -0.269090726  -1.132190661  -0.084004925
  C   -0.075597082  -0.518429708   0.967925570
  N    0.231775496   0.790996533   0.984042334
  C   -0.177859386  -1.223283677   2.294670205
