10
charge=0 charge_a=0 charge_b=0 selection_a=1-2 selection_b=3-10 scaling=0.95 benchmark_Eint=-13.393 benchmark_unit=kcal/mol group=XH-O
  H   -0.619051431   1.544534084   0.000000000
  F    0.002515980   2.280176365   0.000000000
  C   -0.043530871  -0.621703344   0.000000000
  O   -1.040059353   0.082438816   0.000000000
  O    1.192519483  -0.128772862   0.000000000
  H    1.147414141   0.848409881   0.000000000
  C   -0.079064786  -2.116937468   0.000000000
  H   -1.106382181  -2.462294723   0.000000000
  H    0.445152126  -2.493611730  -0.877155210
  H    0.445152126  -2.493611730   0.877155210
