10
charge=0 charge_a=0 charge_b=0 selection_a=1-2 selection_b=3-10 scaling=1.1 benchmark_Eint=-12.984 benchmark_unit=kcal/mol group=XH-O
  H   -0.619051431   1.544534084   0.000000000
  F    0.002515980   2.280176365   0.000000000
  C   -0.110005806  -0.852560492   0.000000000
  O   -1.106534288  -0.148418332   0.000000000
  O    1.126044548  -0.359630010   0.000000000
  H    1.080939206   0.617552733   0.000000000
  C   -0.145539721  -2.347794616   0.000000000
  H   -1.172857116  -2.693151871   0.000000000
  H    0.378677191  -2.724468878  -0.877155210
  H    0.378677191  -2.724468878   0.877155210
