10
charge=0 charge_a=0 charge_b=0 selection_a=1-2 selection_b=3-10 scaling=0.85 benchmark_Eint=-10.150 benchmark_unit=kcal/mol group=XH-O
  H   -0.619051431   1.544534084   0.000000000
  F    0.002515980   2.280176365   0.000000000
  C    0.000785752  -0.467798579   0.000000000
  O   -0.995742730   0.236343581   0.000000000
  O    1.236836106   0.025131903   0.000000000
  H    1.191730764   1.002314646   0.000000000
  C   -0.034748163  -1.963032703   0.000000000
  H   -1.062065558  -2.308389958   0.000000000
  H    0.489468749  -2.339706965  -0.877155210
  H    0.489468749  -2.339706965   0.877155210
