10
charge=0 charge_a=0 charge_b=0 selection_a=1-2 selection_b=3-10 scaling=1.0 benchmark_Eint=-13.704 benchmark_unit=kcal/mol group=XH-O
  H   -0.619051431   1.544534084   0.000000000
  F    0.002515980   2.280176365   0.000000000
  C   -0.065689183  -0.698655727   0.000000000
  O   -1.062217665   0.005486433   0.000000000
  O    1.170361171  -0.205725245   0.000000000
  H    1.125255829   0.771457498   0.000000000
  C   -0.101223098  -2.193889851   0.000000000
  H   -1.128540493  -2.539247106   0.000000000
  H    0.422993814  -2.570564113  -0.877155210
  H    0.422993814  -2.570564113   0.877155210
