10
charge=0 charge_a=0 charge_b=0 selection_a=1-2 selection_b=3-10 scaling=1.5 benchmark_Eint=-6.393 benchmark_unit=kcal/mol group=XH-O
  H   -0.619051431   1.544534084   0.000000000
  F    0.002515980   2.280176365   0.000000000
  C   -0.287272300  -1.468179552   0.000000000
  O   -1.283800782  -0.764037392   0.000000000
  O    0.948778054  -0.975249070   0.000000000
  H    0.903672712   0.001933672   0.000000000
  C   -0.322806215  -2.963413676   0.000000000
  H   -1.350123610  -3.308770932   0.000000000
  H    0.201410697  -3.340087938  -0.877155210
  H    0.201410697  -3.340087938   0.877155210
