10
charge=0 charge_a=0 charge_b=0 selection_a=1-2 selection_b=3-10 scaling=0.8 benchmark_Eint=-6.366 benchmark_unit=kcal/mol group=XH-O
  H   -0.619051431   1.544534084   0.000000000
  F    0.002515980   2.280176365   0.000000000
  C    0.022944064  -0.390846197   0.000000000
  O   -0.973584418   0.313295963   0.000000000
  O    1.258994418   0.102084285   0.000000000
  H    1.213889076   1.079267028   0.000000000
  C   -0.012589851  -1.886080321   0.000000000
  H   -1.039907246  -2.231437576   0.000000000
  H    0.511627061  -2.262754583  -0.877155210
  H    0.511627061  -2.262754583   0.877155210
