10
charge=0 charge_a=0 charge_b=0 selection_a=1-2 selection_b=3-10 scaling=1.25 benchmark_Eint=-10.528 benchmark_unit=kcal/mol group=XH-O
  H   -0.619051431   1.544534084   0.000000000
  F    0.002515980   2.280176365   0.000000000
  C   -0.176480742  -1.083417640   0.000000000
  O   -1.173009224  -0.379275480   0.000000000
  O    1.059569612  -0.590487158   0.000000000
  H    1.014464270   0.386695585   0.000000000
  C   -0.212014656  -2.578651764   0.000000000
  H   -1.239332052  -2.924009019   0.000000000
  H    0.312202256  -2.955326026  -0.877155210
  H    0.312202256  -2.955326026   0.877155210
