12
charge=0 charge_a=0 charge_b=0 selection_a=1-2 selection_b=3-12 scaling=1.5 benchmark_Eint=-5.952 benchmark_unit=kcal/mol group=XH-O
  H   -0.172330123  -1.658470038  -0.378732490
  F    0.321641134  -2.414468754  -0.675442961
  H    1.254228462   2.219824633  -0.508190258
  H    1.288797008   0.456463072  -0.227553292
  H    1.531750026   1.604334855   1.107349594
  H   -2.124376660   2.634326649   1.168916440
  H   -1.009876238   3.472448892   0.065170948
  C    0.987786244   1.416575480   0.179420440
  C   -0.488999202   1.446007106   0.464351822
  O   -1.188645060   0.454592025   0.361013026
  C   -1.083276518   2.760525767   0.889495472
  H   -0.517609340   3.182475631   1.720794868
