12
charge=0 charge_a=0 charge_b=0 selection_a=1-2 selection_b=3-12 scaling=0.85 benchmark_Eint=-8.289 benchmark_unit=kcal/mol group=XH-O
  H   -0.172330123  -1.658470038  -0.378732490
  F    0.321641134  -2.414468754  -0.675442961
  H    1.694631602   1.304164406  -0.828746648
  H    1.729200148  -0.459197155  -0.548109682
  H    1.972153166   0.688674628   0.786793204
  H   -1.683973520   1.718666422   0.848360050
  H   -0.569473098   2.556788665  -0.255385442
  C    1.428189384   0.500915253  -0.141135951
  C   -0.048596062   0.530346879   0.143795432
  O   -0.748241920  -0.461068202   0.040456635
  C   -0.642873379   1.844865540   0.568939081
  H   -0.077206200   2.266815404   1.400238477
