7
charge=0 charge_a=0 charge_b=0 selection_a=1-2 selection_b=3-7 scaling=2.0 benchmark_Eint=-0.519 benchmark_unit=kcal/mol group=XH-O
  H    0.641213651   1.077499808  -2.106597882
  F    0.730811460   0.608431767  -2.910652581
 Br   -0.375834346  -0.076880519   2.063260179
  O    0.569314427  -0.198763570   3.353839732
  O   -1.912165345   0.178612419   2.482913875
  O    0.078521809   1.613518346   1.370586946
  H   -0.629708306   2.200437294   1.682737310
