7
charge=0 charge_a=0 charge_b=0 selection_a=1-2 selection_b=3-7 scaling=1.05 benchmark_Eint=-5.476 benchmark_unit=kcal/mol group=XH-O
  H    0.641213651   1.077499808  -2.106597882
  F    0.730811460   0.608431767  -2.910652581
 Br   -0.108555721  -0.331489325   0.411597386
  O    0.836593052  -0.453372376   1.702176939
  O   -1.644886720  -0.075996387   0.831251082
  O    0.345800434   1.358909540  -0.281075847
  H   -0.362429681   1.945828488   0.031074517
