7
charge=0 charge_a=0 charge_b=0 selection_a=1-2 selection_b=3-7 scaling=1.5 benchmark_Eint=-2.166 benchmark_unit=kcal/mol group=XH-O
  H    0.641213651   1.077499808  -2.106597882
  F    0.730811460   0.608431767  -2.910652581
 Br   -0.235161386  -0.210885154   1.193963972
  O    0.709987388  -0.332768204   2.484543525
  O   -1.771492384   0.044607784   1.613617668
  O    0.219194770   1.479513712   0.501290739
  H   -0.489035346   2.066432660   0.813441103
