13
charge=0 charge_a=0 charge_b=0 selection_a=1-2 selection_b=3-13 scaling=1.5 benchmark_Eint=-5.554 benchmark_unit=kcal/mol group=XH-O
  H    0.576809073  -1.955916470   0.000000000
  F    0.003549381  -2.709931439   0.000000000
  H   -1.504557598   1.745305120   1.387041896
  H   -0.043792568   1.249205706   2.281766459
  H   -0.973293848   0.025328516   1.372224497
  H   -0.973293848   0.025328516  -1.372224497
  H   -0.043792568   1.249205706  -2.281766459
  H   -1.504557598   1.745305120  -1.387041896
  O    0.752970510   2.785741326   0.000000000
  S    0.384835268   1.397067010   0.000000000
  O    1.446389566   0.398861756   0.000000000
  C   -0.658297482   1.064752924   1.404017025
  C   -0.658297482   1.064752924  -1.404017025
