13
charge=0 charge_a=0 charge_b=0 selection_a=1-2 selection_b=3-13 scaling=0.9 benchmark_Eint=-9.969 benchmark_unit=kcal/mol group=XH-O
  H    0.576809073  -1.955916470   0.000000000
  F    0.003549381  -2.709931439   0.000000000
  H   -1.852389796   0.803393829   1.387041896
  H   -0.391624766   0.307294416   2.281766459
  H   -1.321126045  -0.916582775   1.372224497
  H   -1.321126045  -0.916582775  -1.372224497
  H   -0.391624766   0.307294416  -2.281766459
  H   -1.852389796   0.803393829  -1.387041896
  O    0.405138312   1.843830036   0.000000000
  S    0.037003070   0.455155719   0.000000000
  O    1.098557369  -0.543049534   0.000000000
  C   -1.006129679   0.122841633   1.404017025
  C   -1.006129679   0.122841633  -1.404017025
