13
charge=0 charge_a=0 charge_b=0 selection_a=1-2 selection_b=3-13 scaling=0.85 benchmark_Eint=-8.118 benchmark_unit=kcal/mol group=XH-O
  H    0.576809073  -1.955916470   0.000000000
  F    0.003549381  -2.709931439   0.000000000
  H   -1.881375812   0.724901221   1.387041896
  H   -0.420610782   0.228801808   2.281766459
  H   -1.350112061  -0.995075383   1.372224497
  H   -1.350112061  -0.995075383  -1.372224497
  H   -0.420610782   0.228801808  -2.281766459
  H   -1.881375812   0.724901221  -1.387041896
  O    0.376152296   1.765337428   0.000000000
  S    0.008017054   0.376663111   0.000000000
  O    1.069571353  -0.621542142   0.000000000
  C   -1.035115695   0.044349025   1.404017025
  C   -1.035115695   0.044349025  -1.404017025
