13
charge=0 charge_a=0 charge_b=0 selection_a=1-2 selection_b=3-13 scaling=1.0 benchmark_Eint=-11.186 benchmark_unit=kcal/mol group=XH-O
  H    0.576809073  -1.955916470   0.000000000
  F    0.003549381  -2.709931439   0.000000000
  H   -1.794417763   0.960379044   1.387041896
  H   -0.333652733   0.464279631   2.281766459
  H   -1.263154012  -0.759597560   1.372224497
  H   -1.263154012  -0.759597560  -1.372224497
  H   -0.333652733   0.464279631  -2.281766459
  H   -1.794417763   0.960379044  -1.387041896
  O    0.463110345   2.000815251   0.000000000
  S    0.094975103   0.612140934   0.000000000
  O    1.156529402  -0.386064319   0.000000000
  C   -0.948157646   0.279826848   1.404017025
  C   -0.948157646   0.279826848  -1.404017025
