13
charge=0 charge_a=0 charge_b=0 selection_a=1-2 selection_b=3-13 scaling=1.1 benchmark_Eint=-10.666 benchmark_unit=kcal/mol group=XH-O
  H    0.576809073  -1.955916470   0.000000000
  F    0.003549381  -2.709931439   0.000000000
  H   -1.736445730   1.117364259   1.387041896
  H   -0.275680700   0.621264846   2.281766459
  H   -1.205181979  -0.602612345   1.372224497
  H   -1.205181979  -0.602612345  -1.372224497
  H   -0.275680700   0.621264846  -2.281766459
  H   -1.736445730   1.117364259  -1.387041896
  O    0.521082378   2.157800466   0.000000000
  S    0.152947136   0.769126149   0.000000000
  O    1.214501435  -0.229079104   0.000000000
  C   -0.890185613   0.436812063   1.404017025
  C   -0.890185613   0.436812063  -1.404017025
