9
charge=0 charge_a=0 charge_b=0 selection_a=1-2 selection_b=3-9 scaling=1.05 benchmark_Eint=-7.048 benchmark_unit=kcal/mol group=XH-O
  H    0.406762108   0.133290130  -1.762928283
  F    0.361002338   0.018437823  -2.690592045
  H   -0.632783633  -0.193191658   2.901740498
  H    1.124610978  -0.066419800   2.537083084
  H    0.098168691   1.375446676   2.409244079
  C    0.127502137   0.295335034   2.307309947
  N   -0.132984586  -0.017553306   0.869851174
  O    0.653125091   0.470483382   0.062088560
  O   -1.079200541  -0.716041432   0.589277823
