9
charge=0 charge_a=0 charge_b=0 selection_a=1-2 selection_b=3-9 scaling=2.0 benchmark_Eint=-1.820 benchmark_unit=kcal/mol group=XH-O
  H    0.406762108   0.133290130  -1.762928283
  F    0.361002338   0.018437823  -2.690592045
  H   -0.409883792   0.111887950   4.552946213
  H    1.347510819   0.238659808   4.188288799
  H    0.321068532   1.680526284   4.060449794
  C    0.350401978   0.600414642   3.958515662
  N    0.089915255   0.287526302   2.521056889
  O    0.876024932   0.775562990   1.713294275
  O   -0.856300700  -0.410961823   2.240483538
