9
charge=0 charge_a=0 charge_b=0 selection_a=1-2 selection_b=3-9 scaling=0.8 benchmark_Eint=-2.524 benchmark_unit=kcal/mol group=XH-O
  H    0.406762108   0.133290130  -1.762928283
  F    0.361002338   0.018437823  -2.690592045
  H   -0.691441486  -0.273475766   2.467212678
  H    1.065953125  -0.146703908   2.102555264
  H    0.039510838   1.295162568   1.974716259
  C    0.068844284   0.215050926   1.872782127
  N   -0.191642439  -0.097837414   0.435323354
  O    0.594467238   0.390199274  -0.372439260
  O   -1.137858394  -0.796325539   0.154750003
