9
charge=0 charge_a=0 charge_b=0 selection_a=1-2 selection_b=3-9 scaling=0.9 benchmark_Eint=-6.234 benchmark_unit=kcal/mol group=XH-O
  H    0.406762108   0.133290130  -1.762928283
  F    0.361002338   0.018437823  -2.690592045
  H   -0.667978345  -0.241362123   2.641023806
  H    1.089416266  -0.114590265   2.276366392
  H    0.062973979   1.327276211   2.148527387
  C    0.092307425   0.247164569   2.046593255
  N   -0.168179298  -0.065723771   0.609134482
  O    0.617930379   0.422312917  -0.198628132
  O   -1.114395253  -0.764211896   0.328561131
