10
charge=0 charge_a=0 charge_b=0 selection_a=1-2 selection_b=3-10 scaling=0.9 benchmark_Eint=-8.032 benchmark_unit=kcal/mol group=XH-O
  H   -0.837394627  -0.292150111  -1.951062696
  F   -0.514885231   0.312438340  -2.596995252
  H   -1.783503639  -0.909830836  -0.006181012
  H    1.669209487  -1.427562072   0.778355789
  H    0.231648611   1.354728655  -1.240990533
  P    0.111249519   0.031516905   0.474626699
  O   -0.309652105   0.101479002   1.865238787
  O   -0.939622017  -0.799378593  -0.458125635
  O    0.280812277   1.399910786  -0.272072715
  O    1.479545277  -0.708599815   0.166873939
