5
charge=0 charge_a=0 charge_b=0 selection_a=1-2 selection_b=3-5 scaling=0.9 benchmark_Eint=-3.684 benchmark_unit=kcal/mol group=XH-O
  H    0.245679854  -0.156030376  -1.895693416
  F    0.414251896   0.179912897  -2.746626711
  O   -0.054313584  -0.742855651  -0.369922574
  S   -0.165051169  -0.202592188   0.961687754
  O    0.010006852   1.204688747   1.151510530
