5
charge=0 charge_a=0 charge_b=0 selection_a=1-2 selection_b=3-5 scaling=1.05 benchmark_Eint=-4.511 benchmark_unit=kcal/mol group=XH-O
  H    0.245679854  -0.156030376  -1.895693416
  F    0.414251896   0.179912897  -2.746626711
  O   -0.104312490  -0.840659863  -0.115627434
  S   -0.215050075  -0.300396400   1.215982894
  O   -0.039992054   1.106884535   1.405805671
