5
charge=0 charge_a=0 charge_b=0 selection_a=1-2 selection_b=3-5 scaling=1.1 benchmark_Eint=-4.346 benchmark_unit=kcal/mol group=XH-O
  H    0.245679854  -0.156030376  -1.895693416
  F    0.414251896   0.179912897  -2.746626711
  O   -0.120978792  -0.873261267  -0.030862387
  S   -0.231716377  -0.332997804   1.300747940
  O   -0.056658356   1.074283131   1.490570718
