5
charge=0 charge_a=0 charge_b=0 selection_a=1-2 selection_b=3-5 scaling=0.85 benchmark_Eint=-2.475 benchmark_unit=kcal/mol group=XH-O
  H    0.245679854  -0.156030376  -1.895693416
  F    0.414251896   0.179912897  -2.746626711
  O   -0.037647282  -0.710254247  -0.454687621
  S   -0.148384867  -0.169990784   0.876922707
  O    0.026673154   1.237290151   1.066745484
