5
charge=0 charge_a=0 charge_b=0 selection_a=1-2 selection_b=3-5 scaling=0.8 benchmark_Eint=-0.370 benchmark_unit=kcal/mol group=XH-O
  H    0.245679854  -0.156030376  -1.895693416
  F    0.414251896   0.179912897  -2.746626711
  O   -0.020980980  -0.677652842  -0.539452668
  S   -0.131718565  -0.137389379   0.792157660
  O    0.043339456   1.269891556   0.981980437
