19
charge=0 charge_a=0 charge_b=0 selection_a=1-2 selection_b=3-19 scaling=0.8 benchmark_Eint=-7.367 benchmark_unit=kcal/mol group=XH-O
  H    0.722076242   0.417041132  -2.292371636
  F    0.742303641   1.182336194  -2.864394339
  H   -1.535340555   1.245614245  -2.038935044
  H   -1.704046138  -0.660321668   2.130302113
  H   -0.089326076  -1.091044880   2.749503756
  H   -1.240050146  -2.371122590   2.293125047
  H   -2.775635878   1.704534215  -0.843229202
  H   -2.531075041  -0.008529733  -1.254647655
  H    1.108703518   2.552283551   0.541984689
  H    2.556688992   1.899356703   1.348891386
  H    2.296188004   1.603905374  -0.388471710
  C   -0.884109964  -1.372799763   2.063106950
  O   -0.375910227  -1.426591030   0.718451560
  P    0.097434876  -0.141855778  -0.047931799
  O    0.593867468  -0.474635367  -1.391316762
  O   -1.096758145   0.897041960  -0.033206912
  C   -2.043045502   0.955330742  -1.123569854
  O    1.125398953   0.511674447   0.948678588
  C    1.813825569   1.724954990   0.578550953
