19
charge=0 charge_a=0 charge_b=0 selection_a=1-2 selection_b=3-19 scaling=1.25 benchmark_Eint=-11.686 benchmark_unit=kcal/mol group=XH-O
  H    0.722076242   0.417041132  -2.292371636
  F    0.742303641   1.182336194  -2.864394339
  H   -1.607457990   0.744046214  -1.532091677
  H   -1.776163573  -1.161889699   2.637145480
  H   -0.161443511  -1.592612911   3.256347123
  H   -1.312167581  -2.872690621   2.799968414
  H   -2.847753313   1.202966184  -0.336385835
  H   -2.603192476  -0.510097764  -0.747804288
  H    1.036586083   2.050715520   1.048828056
  H    2.484571557   1.397788672   1.855734753
  H    2.224070569   1.102337343   0.118371657
  C   -0.956227399  -1.874367794   2.569950317
  O   -0.448027662  -1.928159061   1.225294927
  P    0.025317441  -0.643423809   0.458911568
  O    0.521750033  -0.976203398  -0.884473395
  O   -1.168875580   0.395473929   0.473636455
  C   -2.115162937   0.453762711  -0.616726487
  O    1.053281518   0.010106416   1.455521955
  C    1.741708134   1.223386959   1.085394320
