19
charge=0 charge_a=0 charge_b=0 selection_a=1-2 selection_b=3-19 scaling=2.0 benchmark_Eint=-3.318 benchmark_unit=kcal/mol group=XH-O
  H    0.722076242   0.417041132  -2.292371636
  F    0.742303641   1.182336194  -2.864394339
  H   -1.727653715  -0.091900504  -0.687352732
  H   -1.896359298  -1.997836417   3.481884425
  H   -0.281639236  -2.428559629   4.101086068
  H   -1.432363306  -3.708637339   3.644707359
  H   -2.967949038   0.367019466   0.508353110
  H   -2.723388201  -1.346044482   0.096934657
  H    0.916390358   1.214768802   1.893567001
  H    2.364375832   0.561841954   2.700473698
  H    2.103874844   0.266390625   0.963110602
  C   -1.076423124  -2.710314512   3.414689262
  O   -0.568223387  -2.764105779   2.070033872
  P   -0.094878284  -1.479370527   1.303650513
  O    0.401554308  -1.812150116  -0.039734450
  O   -1.289071305  -0.440472789   1.318375400
  C   -2.235358662  -0.382184007   0.228012458
  O    0.933085793  -0.825840302   2.300260900
  C    1.621512409   0.387440241   1.930133265
