19
charge=0 charge_a=0 charge_b=0 selection_a=1-2 selection_b=3-19 scaling=0.85 benchmark_Eint=-11.012 benchmark_unit=kcal/mol group=XH-O
  H    0.722076242   0.417041132  -2.292371636
  F    0.742303641   1.182336194  -2.864394339
  H   -1.543353603   1.189884464  -1.982619114
  H   -1.712059186  -0.716051449   2.186618043
  H   -0.097339124  -1.146774661   2.805819686
  H   -1.248063194  -2.426852371   2.349440977
  H   -2.783648926   1.648804434  -0.786913272
  H   -2.539088089  -0.064259514  -1.198331725
  H    1.100690470   2.496553770   0.598300619
  H    2.548675944   1.843626922   1.405207316
  H    2.288174956   1.548175593  -0.332155780
  C   -0.892123012  -1.428529544   2.119422880
  O   -0.383923275  -1.482320811   0.774767490
  P    0.089421828  -0.197585559   0.008384131
  O    0.585854420  -0.530365148  -1.335000832
  O   -1.104771193   0.841312179   0.023109018
  C   -2.051058550   0.899600961  -1.067253924
  O    1.117385905   0.455944666   1.004994518
  C    1.805812521   1.669225209   0.634866883
