19
charge=0 charge_a=0 charge_b=0 selection_a=1-2 selection_b=3-19 scaling=0.9 benchmark_Eint=-13.123 benchmark_unit=kcal/mol group=XH-O
  H    0.722076242   0.417041132  -2.292371636
  F    0.742303641   1.182336194  -2.864394339
  H   -1.551366651   1.134154682  -1.926303184
  H   -1.720072234  -0.771781231   2.242933973
  H   -0.105352172  -1.202504443   2.862135616
  H   -1.256076242  -2.482582153   2.405756907
  H   -2.791661974   1.593074652  -0.730597342
  H   -2.547101137  -0.119989296  -1.142015795
  H    1.092677422   2.440823988   0.654616549
  H    2.540662896   1.787897140   1.461523246
  H    2.280161908   1.492445811  -0.275839850
  C   -0.900136060  -1.484259326   2.175738810
  O   -0.391936323  -1.538050593   0.831083420
  P    0.081408780  -0.253315341   0.064700061
  O    0.577841372  -0.586094930  -1.278684902
  O   -1.112784241   0.785582397   0.079424948
  C   -2.059071598   0.843871179  -1.010937994
  O    1.109372857   0.400214884   1.061310448
  C    1.797799473   1.613495427   0.691182813
