11
charge=0 charge_a=0 charge_b=0 selection_a=1-2 selection_b=3-11 scaling=2.0 benchmark_Eint=-2.637 benchmark_unit=kcal/mol group=XH-O
  H   -0.584351614  -1.027562335   0.000000000
 Cl   -0.012904668  -2.252533912   0.000000000
  H    1.620994896   3.039829822   0.000000000
  H    1.042592101   1.404360247   0.000000000
  H   -1.233266391   4.577592114  -0.877696901
  H   -1.233266391   4.577592114   0.877696901
  H    0.278074308   4.889209941   0.000000000
  O   -1.380324080   2.051720445   0.000000000
  C   -0.421439256   2.825964640   0.000000000
  N    0.853325090   2.396039832   0.000000000
  C   -0.645696404   4.315521949   0.000000000
