11
charge=0 charge_a=0 charge_b=0 selection_a=1-2 selection_b=3-11 scaling=0.8 benchmark_Eint=-6.832 benchmark_unit=kcal/mol group=XH-O
  H   -0.584351614  -1.027562335   0.000000000
 Cl   -0.012904668  -2.252533912   0.000000000
  H    2.098578376   1.192260154   0.000000000
  H    1.520175581  -0.443209421   0.000000000
  H   -0.755682911   2.730022446  -0.877696901
  H   -0.755682911   2.730022446   0.877696901
  H    0.755657788   3.041640273   0.000000000
  O   -0.902740600   0.204150777   0.000000000
  C    0.056144224   0.978394972   0.000000000
  N    1.330908570   0.548470164   0.000000000
  C   -0.168112924   2.467952281   0.000000000
