11
charge=0 charge_a=0 charge_b=0 selection_a=1-2 selection_b=3-11 scaling=0.9 benchmark_Eint=-6.935 benchmark_unit=kcal/mol group=XH-O
  H   -0.210563935   0.623845157   0.000000000
 Cl    0.030262919   1.919061317   0.000000000
  H   -0.290124624  -0.965141118   2.024535962
  H   -0.062317785  -2.545386234   1.239102070
  H    1.253668249  -1.343531258   1.225881103
  H   -0.290124624  -0.965141118  -2.024535962
  H   -0.062317785  -2.545386234  -1.239102070
  H    1.253668249  -1.343531258  -1.225881103
  C    0.169358758  -1.478915142   1.185132717
  O   -0.369690136  -0.912647574   0.000000000
  C    0.169358758  -1.478915142  -1.185132717
