11
charge=0 charge_a=0 charge_b=0 selection_a=1-2 selection_b=3-11 scaling=1.0 benchmark_Eint=-7.758 benchmark_unit=kcal/mol group=XH-O
  H   -0.210563935   0.623845157   0.000000000
 Cl    0.030262919   1.919061317   0.000000000
  H   -0.307805313  -1.135862533   2.024535962
  H   -0.079998474  -2.716107648   1.239102070
  H    1.235987560  -1.514252673   1.225881103
  H   -0.307805313  -1.135862533  -2.024535962
  H   -0.079998474  -2.716107648  -1.239102070
  H    1.235987560  -1.514252673  -1.225881103
  C    0.151678069  -1.649636556   1.185132717
  O   -0.387370825  -1.083368988   0.000000000
  C    0.151678069  -1.649636556  -1.185132717
