11
charge=0 charge_a=0 charge_b=0 selection_a=1-2 selection_b=3-11 scaling=0.95 benchmark_Eint=-7.556 benchmark_unit=kcal/mol group=XH-O
  H   -0.210563935   0.623845157   0.000000000
 Cl    0.030262919   1.919061317   0.000000000
  H   -0.298964968  -1.050501826   2.024535962
  H   -0.071158130  -2.630746941   1.239102070
  H    1.244827904  -1.428891966   1.225881103
  H   -0.298964968  -1.050501826  -2.024535962
  H   -0.071158130  -2.630746941  -1.239102070
  H    1.244827904  -1.428891966  -1.225881103
  C    0.160518414  -1.564275849   1.185132717
  O   -0.378530480  -0.998008281   0.000000000
  C    0.160518414  -1.564275849  -1.185132717
