11
charge=0 charge_a=0 charge_b=0 selection_a=1-2 selection_b=3-11 scaling=0.8 benchmark_Eint=-3.590 benchmark_unit=kcal/mol group=XH-O
  H   -0.210563935   0.623845157   0.000000000
 Cl    0.030262919   1.919061317   0.000000000
  H   -0.272443935  -0.794419704   2.024535962
  H   -0.044637096  -2.374664819   1.239102070
  H    1.271348938  -1.172809844   1.225881103
  H   -0.272443935  -0.794419704  -2.024535962
  H   -0.044637096  -2.374664819  -1.239102070
  H    1.271348938  -1.172809844  -1.225881103
  C    0.187039447  -1.308193727   1.185132717
  O   -0.352009447  -0.741926159   0.000000000
  C    0.187039447  -1.308193727  -1.185132717
