13
charge=0 charge_a=0 charge_b=0 selection_a=1-2 selection_b=3-13 scaling=1.25 benchmark_Eint=-6.180 benchmark_unit=kcal/mol group=XH-O
  H    0.677392394   1.621702208   0.000000000
 Cl   -0.001716351   2.739716399   0.000000000
  H   -1.672950976  -1.824526701  -1.388755889
  H   -0.203230962  -1.352621925  -2.281738262
  H   -1.113138385  -0.114937590  -1.372970259
  H   -1.113138385  -0.114937590   1.372970259
  H   -0.203230962  -1.352621925   2.281738262
  H   -1.672950976  -1.824526701   1.388755889
  O    0.547568591  -2.913966678   0.000000000
  S    0.222880024  -1.513550257   0.000000000
  O    1.306772428  -0.544689443   0.000000000
  C   -0.814573083  -1.159299556  -1.403732425
  C   -0.814573083  -1.159299556   1.403732425
