13
charge=0 charge_a=0 charge_b=0 selection_a=1-2 selection_b=3-13 scaling=0.85 benchmark_Eint=-5.477 benchmark_unit=kcal/mol group=XH-O
  H    0.677392394   1.621702208   0.000000000
 Cl   -0.001716351   2.739716399   0.000000000
  H   -1.874352587  -1.131281373  -1.388755889
  H   -0.404632573  -0.659376597  -2.281738262
  H   -1.314539996   0.578307738  -1.372970259
  H   -1.314539996   0.578307738   1.372970259
  H   -0.404632573  -0.659376597   2.281738262
  H   -1.874352587  -1.131281373   1.388755889
  O    0.346166980  -2.220721350   0.000000000
  S    0.021478413  -0.820304929   0.000000000
  O    1.105370817   0.148555885   0.000000000
  C   -1.015974694  -0.466054228  -1.403732425
  C   -1.015974694  -0.466054228   1.403732425
