13
charge=0 charge_a=0 charge_b=0 selection_a=1-2 selection_b=3-13 scaling=2.0 benchmark_Eint=-1.394 benchmark_unit=kcal/mol group=XH-O
  H    0.677392394   1.621702208   0.000000000
 Cl   -0.001716351   2.739716399   0.000000000
  H   -1.295322956  -3.124361692  -1.388755889
  H    0.174397058  -2.652456916  -2.281738262
  H   -0.735510365  -1.414772581  -1.372970259
  H   -0.735510365  -1.414772581   1.372970259
  H    0.174397058  -2.652456916   2.281738262
  H   -1.295322956  -3.124361692   1.388755889
  O    0.925196611  -4.213801669   0.000000000
  S    0.600508044  -2.813385248   0.000000000
  O    1.684400448  -1.844524434   0.000000000
  C   -0.436945063  -2.459134547  -1.403732425
  C   -0.436945063  -2.459134547   1.403732425
