13
charge=0 charge_a=0 charge_b=0 selection_a=1-2 selection_b=3-13 scaling=1.05 benchmark_Eint=-7.731 benchmark_unit=kcal/mol group=XH-O
  H    0.677392394   1.621702208   0.000000000
 Cl   -0.001716351   2.739716399   0.000000000
  H   -1.773651782  -1.477904037  -1.388755889
  H   -0.303931768  -1.005999261  -2.281738262
  H   -1.213839191   0.231685074  -1.372970259
  H   -1.213839191   0.231685074   1.372970259
  H   -0.303931768  -1.005999261   2.281738262
  H   -1.773651782  -1.477904037   1.388755889
  O    0.446867785  -2.567344014   0.000000000
  S    0.122179218  -1.166927593   0.000000000
  O    1.206071622  -0.198066779   0.000000000
  C   -0.915273889  -0.812676892  -1.403732425
  C   -0.915273889  -0.812676892   1.403732425
