12
charge=0 charge_a=0 charge_b=0 selection_a=1-2 selection_b=3-12 scaling=0.95 benchmark_Eint=-9.047 benchmark_unit=kcal/mol group=XH-O
  H   -0.373384347  -1.562222782   0.000000000
 Cl    0.104536029  -2.797229754   0.000000000
  H    0.126686280   1.507954209  -2.279157595
  H    0.776974067   2.872915346  -1.337428233
  H   -0.974255503   2.477842221  -1.264879777
  H    0.126686280   1.507954209   2.279157595
  H   -0.974255503   2.477842221   1.264879777
  C    0.033314969   2.078774012  -1.359426576
  S    0.343601827   0.929647473   0.000000000
  O   -0.818631543  -0.022994646   0.000000000
  C    0.033314969   2.078774012   1.359426576
  H    0.776974067   2.872915346   1.337428233
