12
charge=0 charge_a=0 charge_b=0 selection_a=1-2 selection_b=3-12 scaling=1.5 benchmark_Eint=-5.197 benchmark_unit=kcal/mol group=XH-O
  H   -0.373384347  -1.562222782   0.000000000
 Cl    0.104536029  -2.797229754   0.000000000
  H   -0.131088412   2.399086288  -2.279157595
  H    0.519199374   3.764047424  -1.337428233
  H   -1.232030196   3.368974300  -1.264879777
  H   -0.131088412   2.399086288   2.279157595
  H   -1.232030196   3.368974300   1.264879777
  C   -0.224459724   2.969906090  -1.359426576
  S    0.085827134   1.820779552   0.000000000
  O   -1.076406236   0.868137432   0.000000000
  C   -0.224459724   2.969906090   1.359426576
  H    0.519199374   3.764047424   1.337428233
