12
charge=0 charge_a=0 charge_b=0 selection_a=1-2 selection_b=3-12 scaling=1.0 benchmark_Eint=-9.320 benchmark_unit=kcal/mol group=XH-O
  H   -0.373384347  -1.562222782   0.000000000
 Cl    0.104536029  -2.797229754   0.000000000
  H    0.103252217   1.588966216  -2.279157595
  H    0.753540004   2.953927353  -1.337428233
  H   -0.997689566   2.558854228  -1.264879777
  H    0.103252217   1.588966216   2.279157595
  H   -0.997689566   2.558854228   1.264879777
  C    0.009880906   2.159786019  -1.359426576
  S    0.320167764   1.010659480   0.000000000
  O   -0.842065606   0.058017361   0.000000000
  C    0.009880906   2.159786019   1.359426576
  H    0.753540004   2.953927353   1.337428233
