8
charge=0 charge_a=0 charge_b=0 selection_a=1-2 selection_b=3-8 scaling=0.9 benchmark_Eint=-6.007 benchmark_unit=kcal/mol group=XH-O
  H   -0.130950748  -0.024654388   0.445363631
 Cl    0.439378631  -0.847372435   1.292470218
  O   -0.704961475   0.941273013  -0.680339827
  H   -0.546038410   1.863814133  -0.465463966
  C   -0.119349672   0.637857665  -1.950831912
  H    0.958560972   0.805007007  -1.945143613
  H   -0.311087667  -0.414815709  -2.136101453
  H   -0.579690049   1.228140315  -2.743553244
