10
charge=0 charge_a=0 charge_b=0 selection_a=1-2 selection_b=3-10 scaling=0.9 benchmark_Eint=-4.626 benchmark_unit=kcal/mol group=XH-O
  H   -0.832296971  -0.619441601  -1.680940386
 Cl   -0.383940710   0.039732709  -2.699319771
  H   -1.791963071  -0.843152086   0.601927483
  H    1.719372965  -1.427470475   1.075263727
  H    0.306702486   1.292266320  -0.883080191
  P    0.153980833   0.048836677   0.895043073
  O   -0.128391124   0.212049078   2.312901418
  O   -0.958378317  -0.836052959   0.119071215
  O    0.257550935   1.390098618   0.079505983
  O    1.493931521  -0.699427375   0.487445034
