10
charge=0 charge_a=0 charge_b=0 selection_a=1-2 selection_b=3-10 scaling=0.85 benchmark_Eint=-3.351 benchmark_unit=kcal/mol group=XH-O
  H   -0.832296971  -0.619441601  -1.680940386
 Cl   -0.383940710   0.039732709  -2.699319771
  H   -1.784958551  -0.831118122   0.501926838
  H    1.726377485  -1.415436511   0.975263082
  H    0.313707006   1.304300284  -0.983080836
  P    0.160985353   0.060870641   0.795042428
  O   -0.121386604   0.224083042   2.212900774
  O   -0.951373797  -0.824018995   0.019070570
  O    0.264555455   1.402132582  -0.020494662
  O    1.500936041  -0.687393411   0.387444390
