10
charge=0 charge_a=0 charge_b=0 selection_a=1-2 selection_b=3-10 scaling=1.05 benchmark_Eint=-5.410 benchmark_unit=kcal/mol group=XH-O
  H   -0.832296971  -0.619441601  -1.680940386
 Cl   -0.383940710   0.039732709  -2.699319771
  H   -1.812976628  -0.879253979   0.901929416
  H    1.698359408  -1.463572368   1.375265660
  H    0.285688929   1.256164427  -0.583078258
  P    0.132967276   0.012734784   1.195045006
  O   -0.149404681   0.175947185   2.612903352
  O   -0.979391874  -0.872154852   0.419073148
  O    0.236537378   1.353996725   0.379507916
  O    1.472917964  -0.735529268   0.787446968
