10
charge=0 charge_a=0 charge_b=0 selection_a=1-2 selection_b=3-10 scaling=1.5 benchmark_Eint=-2.057 benchmark_unit=kcal/mol group=XH-O
  H   -0.832296971  -0.619441601  -1.680940386
 Cl   -0.383940710   0.039732709  -2.699319771
  H   -1.876017301  -0.987559658   1.801935217
  H    1.635318735  -1.571878048   2.275271461
  H    0.222648256   1.147858748   0.316927543
  P    0.069926603  -0.095570896   2.095050807
  O   -0.212445354   0.067641506   3.512909152
  O   -1.042432547  -0.980460532   1.319078949
  O    0.173496705   1.245691046   1.279513717
  O    1.409877291  -0.843834948   1.687452768
