7
charge=0 charge_a=0 charge_b=0 selection_a=1-2 selection_b=3-7 scaling=2.0 benchmark_Eint=-1.128 benchmark_unit=kcal/mol group=XH-O
  H    0.871142764  -2.312108758   0.000000000
 Cl    0.307298170  -3.478726849   0.000000000
  P    0.649082379   2.389638095   0.000000000
 Cl   -0.576256230   2.280371160   1.584057720
 Cl   -0.576256230   2.280371160  -1.584057720
 Cl    1.301262507   4.287570909   0.000000000
  O    1.719683410   1.399305032   0.000000000
