7
charge=0 charge_a=0 charge_b=0 selection_a=1-2 selection_b=3-7 scaling=1.1 benchmark_Eint=-5.159 benchmark_unit=kcal/mol group=XH-O
  H    0.871142764  -2.312108758   0.000000000
 Cl    0.307298170  -3.478726849   0.000000000
  P    0.267239088   0.719501890   0.000000000
 Cl   -0.958099521   0.610234954   1.584057720
 Cl   -0.958099521   0.610234954  -1.584057720
 Cl    0.919419216   2.617434704   0.000000000
  O    1.337840119  -0.270831174   0.000000000
