7
charge=0 charge_a=0 charge_b=0 selection_a=1-2 selection_b=3-7 scaling=0.9 benchmark_Eint=-4.542 benchmark_unit=kcal/mol group=XH-O
  H    0.871142764  -2.312108758   0.000000000
 Cl    0.307298170  -3.478726849   0.000000000
  P    0.182385024   0.348360510   0.000000000
 Cl   -1.042953585   0.239093576   1.584057720
 Cl   -1.042953585   0.239093576  -1.584057720
 Cl    0.834565152   2.246293324   0.000000000
  O    1.252986055  -0.641972552   0.000000000
