5
charge=0 charge_a=0 charge_b=0 selection_a=1-2 selection_b=3-5 scaling=0.85 benchmark_Eint=-1.369 benchmark_unit=kcal/mol group=XH-O
  H    0.164404635  -0.143388383  -1.463844896
 Cl    0.448835015   0.375928693  -2.606531987
  O   -0.219267948  -0.824102516   0.113453908
  S   -0.271546075  -0.296785755   1.451610672
  O    0.041187439   1.084876613   1.662619312
