5
charge=0 charge_a=0 charge_b=0 selection_a=1-2 selection_b=3-5 scaling=0.9 benchmark_Eint=-2.214 benchmark_unit=kcal/mol group=XH-O
  H    0.164404635  -0.143388383  -1.463844896
 Cl    0.448835015   0.375928693  -2.606531987
  O   -0.241836923  -0.864144524   0.206236191
  S   -0.294115050  -0.336827763   1.544392955
  O    0.018618464   1.044834605   1.755401595
