5
charge=0 charge_a=0 charge_b=0 selection_a=1-2 selection_b=3-5 scaling=1.5 benchmark_Eint=-1.320 benchmark_unit=kcal/mol group=XH-O
  H    0.164404635  -0.143388383  -1.463844896
 Cl    0.448835015   0.375928693  -2.606531987
  O   -0.512664628  -1.344648618   1.319623582
  S   -0.564942756  -0.817331858   2.657780346
  O   -0.252209242   0.564330510   2.868788986
