5
charge=0 charge_a=0 charge_b=0 selection_a=1-2 selection_b=3-5 scaling=2.0 benchmark_Eint=-0.540 benchmark_unit=kcal/mol group=XH-O
  H    0.164404635  -0.143388383  -1.463844896
 Cl    0.448835015   0.375928693  -2.606531987
  O   -0.738354383  -1.745068697   2.247446408
  S   -0.790632510  -1.217751936   3.585603172
  O   -0.477898996   0.163910432   3.796611812
