5
charge=0 charge_a=0 charge_b=0 selection_a=1-2 selection_b=3-5 scaling=0.8 benchmark_Eint=0.082 benchmark_unit=kcal/mol group=XH-O
  H    0.164404635  -0.143388383  -1.463844896
 Cl    0.448835015   0.375928693  -2.606531987
  O   -0.196698972  -0.784060509   0.020671626
  S   -0.248977099  -0.256743748   1.358828390
  O    0.063756415   1.124918620   1.569837030
