19
charge=0 charge_a=0 charge_b=0 selection_a=1-2 selection_b=3-19 scaling=0.9 benchmark_Eint=-8.855 benchmark_unit=kcal/mol group=XH-O
  H    0.256714246   0.282080426  -2.234905683
 Cl   -0.391109730   0.255686958  -3.383670479
  H   -1.590033474   1.630691864  -0.959678841
  H   -1.584988636  -1.809836314   1.836356383
  H    0.031084073  -2.339035202   2.368425937
  H   -0.888313914  -3.319383319   1.200239148
  H   -2.854678640   1.530031304   0.294799514
  H   -2.442304154   0.099860021  -0.682385597
  H    0.888820554   2.068309361   2.304069362
  H    2.321496360   1.206553898   2.914747490
  H    2.263553590   1.736175080   1.215391622
  C   -0.667453170  -2.311847885   1.535448053
  O   -0.069570875  -1.636556821   0.415463411
  P    0.244877211  -0.098189513   0.429632285
  O    0.857187710   0.354640463  -0.825566298
  O   -1.095475263   0.654809062   0.815739678
  C   -2.053827528   0.998677594  -0.207874827
  O    1.112445608   0.080951408   1.731453719
  C    1.680206284   1.364261221   2.054485427
