19
charge=0 charge_a=0 charge_b=0 selection_a=1-2 selection_b=3-19 scaling=1.25 benchmark_Eint=-8.200 benchmark_unit=kcal/mol group=XH-O
  H    0.256714246   0.282080426  -2.234905683
 Cl   -0.391109730   0.255686958  -3.383670479
  H   -1.356516016   1.658909656  -0.411602414
  H   -1.351471178  -1.781618522   2.384432810
  H    0.264601532  -2.310817410   2.916502364
  H   -0.654796456  -3.291165527   1.748315576
  H   -2.621161182   1.558249096   0.842875942
  H   -2.208786696   0.128077813  -0.134309170
  H    1.122338012   2.096527153   2.852145790
  H    2.555013818   1.234771690   3.462823918
  H    2.497071048   1.764392872   1.763468050
  C   -0.433935712  -2.283630093   2.083524480
  O    0.163946584  -1.608339029   0.963539838
  P    0.478394670  -0.069971721   0.977708712
  O    1.090705168   0.382858255  -0.277489870
  O   -0.861957804   0.683026854   1.363816106
  C   -1.820310070   1.026895386   0.340201600
  O    1.345963066   0.109169200   2.279530146
  C    1.913723742   1.392479013   2.602561854
