19
charge=0 charge_a=0 charge_b=0 selection_a=1-2 selection_b=3-19 scaling=1.1 benchmark_Eint=-9.620 benchmark_unit=kcal/mol group=XH-O
  H    0.256714246   0.282080426  -2.234905683
 Cl   -0.391109730   0.255686958  -3.383670479
  H   -1.456594926   1.646816316  -0.646492311
  H   -1.451550088  -1.793711862   2.149542913
  H    0.164522621  -2.322910750   2.681612467
  H   -0.754875366  -3.303258867   1.513425678
  H   -2.721240092   1.546155756   0.607986044
  H   -2.308865606   0.115984473  -0.369199067
  H    1.022259102   2.084433813   2.617255892
  H    2.454934908   1.222678350   3.227934020
  H    2.396992138   1.752299532   1.528578152
  C   -0.534014622  -2.295723433   1.848634583
  O    0.063867673  -1.620432369   0.728649941
  P    0.378315759  -0.082065061   0.742818815
  O    0.990626258   0.370764915  -0.512379768
  O   -0.962036715   0.670933514   1.128926208
  C   -1.920388980   1.014802046   0.105311703
  O    1.245884156   0.097075860   2.044640249
  C    1.813644832   1.380385673   2.367671957
