19
charge=0 charge_a=0 charge_b=0 selection_a=1-2 selection_b=3-19 scaling=1.5 benchmark_Eint=-5.603 benchmark_unit=kcal/mol group=XH-O
  H    0.256714246   0.282080426  -2.234905683
 Cl   -0.391109730   0.255686958  -3.383670479
  H   -1.189717831   1.679065222  -0.020119251
  H   -1.184672993  -1.761462956   2.775915973
  H    0.431399716  -2.290661844   3.307985527
  H   -0.487998271  -3.271009962   2.139798738
  H   -2.454362997   1.578404662   1.234359104
  H   -2.041988511   0.148233378   0.257173993
  H    1.289136197   2.116682718   3.243628952
  H    2.721812003   1.254927256   3.854307080
  H    2.663869233   1.784548438   2.154951212
  C   -0.267137527  -2.263474528   2.475007643
  O    0.330744768  -1.588183464   1.355023001
  P    0.645192854  -0.049816156   1.369191875
  O    1.257503353   0.403013820   0.113993292
  O   -0.695159620   0.703182420   1.755299268
  C   -1.653511885   1.047050952   0.731684763
  O    1.512761251   0.129324766   2.671013309
  C    2.080521927   1.412634578   2.994045017
