19
charge=0 charge_a=0 charge_b=0 selection_a=1-2 selection_b=3-19 scaling=2.0 benchmark_Eint=-2.504 benchmark_unit=kcal/mol group=XH-O
  H    0.256714246   0.282080426  -2.234905683
 Cl   -0.391109730   0.255686958  -3.383670479
  H   -0.856121462   1.719376353   0.762847074
  H   -0.851076624  -1.721151825   3.558882298
  H    0.764996085  -2.250350713   4.090951852
  H   -0.154401902  -3.230698830   2.922765063
  H   -2.120766628   1.618715793   2.017325429
  H   -1.708392142   0.188544510   1.040140318
  H    1.622732566   2.156993850   4.026595277
  H    3.055408372   1.295238387   4.637273405
  H    2.997465602   1.824859569   2.937917537
  C    0.066458842  -2.223163396   3.257973968
  O    0.664341137  -1.547872332   2.137989326
  P    0.978789223  -0.009505024   2.152158200
  O    1.591099722   0.443324952   0.896959617
  O   -0.361563251   0.743493551   2.538265593
  C   -1.319915516   1.087362083   1.514651088
  O    1.846357620   0.169635897   3.453979634
  C    2.414118296   1.452945710   3.777011342
