19
charge=0 charge_a=0 charge_b=0 selection_a=1-2 selection_b=3-19 scaling=0.95 benchmark_Eint=-9.624 benchmark_unit=kcal/mol group=XH-O
  H    0.256714246   0.282080426  -2.234905683
 Cl   -0.391109730   0.255686958  -3.383670479
  H   -1.556673837   1.634722977  -0.881382208
  H   -1.551628999  -1.805805201   1.914653016
  H    0.064443710  -2.335004089   2.446722570
  H   -0.854954277  -3.315352206   1.278535780
  H   -2.821319003   1.534062417   0.373096146
  H   -2.408944517   0.103891134  -0.604088964
  H    0.922180191   2.072340474   2.382365994
  H    2.354855997   1.210585011   2.993044122
  H    2.296913227   1.740206193   1.293688254
  C   -0.634093533  -2.307816772   1.613744686
  O   -0.036211238  -1.632525708   0.493760044
  P    0.278236848  -0.094158400   0.507928918
  O    0.890547347   0.358671576  -0.747269666
  O   -1.062115626   0.658840175   0.894036310
  C   -2.020467891   1.002708707  -0.129578194
  O    1.145805245   0.084982521   1.809750352
  C    1.713565921   1.368292334   2.132782060
