5
charge=0 charge_a=0 charge_b=0 selection_a=1-2 selection_b=3-5 scaling=1.0 benchmark_Eint=-5.570 benchmark_unit=kcal/mol group=XH-O
  H   -0.064352184  -0.188326900  -0.093549965
 Cl    0.085737575   0.878306338   0.638965120
  O   -0.200326781  -1.677115184  -1.185430212
  H   -0.318639179  -1.442493303  -2.110104504
  H    0.587456559  -2.227042661  -1.153100951
