5
charge=0 charge_a=0 charge_b=0 selection_a=1-2 selection_b=3-5 scaling=1.25 benchmark_Eint=-4.413 benchmark_unit=kcal/mol group=XH-O
  H   -0.064352184  -0.188326900  -0.093549965
 Cl    0.085737575   0.878306338   0.638965120
  O   -0.234320430  -2.049312255  -1.458400274
  H   -0.352632828  -1.814690374  -2.383074566
  H    0.553462910  -2.599239732  -1.426071013
