5
charge=0 charge_a=0 charge_b=0 selection_a=1-2 selection_b=3-5 scaling=0.95 benchmark_Eint=-5.344 benchmark_unit=kcal/mol group=XH-O
  H   -0.064352184  -0.188326900  -0.093549965
 Cl    0.085737575   0.878306338   0.638965120
  O   -0.193528051  -1.602675770  -1.130836200
  H   -0.311840449  -1.368053889  -2.055510492
  H    0.594255289  -2.152603247  -1.098506939
