5
charge=0 charge_a=0 charge_b=0 selection_a=1-2 selection_b=3-5 scaling=0.8 benchmark_Eint=-1.673 benchmark_unit=kcal/mol group=XH-O
  H   -0.064352184  -0.188326900  -0.093549965
 Cl    0.085737575   0.878306338   0.638965120
  O   -0.173131862  -1.379357527  -0.967054163
  H   -0.291444260  -1.144735646  -1.891728455
  H    0.614651478  -1.929285004  -0.934724902
