5
charge=0 charge_a=0 charge_b=0 selection_a=1-2 selection_b=3-5 scaling=1.5 benchmark_Eint=-2.806 benchmark_unit=kcal/mol group=XH-O
  H   -0.064352184  -0.188326900  -0.093549965
 Cl    0.085737575   0.878306338   0.638965120
  O   -0.268314080  -2.421509326  -1.731370336
  H   -0.386626478  -2.186887445  -2.656044628
  H    0.519469260  -2.971436803  -1.699041074
