5
charge=0 charge_a=0 charge_b=0 selection_a=1-2 selection_b=3-5 scaling=2.0 benchmark_Eint=-1.139 benchmark_unit=kcal/mol group=XH-O
  H   -0.064352184  -0.188326900  -0.093549965
 Cl    0.085737575   0.878306338   0.638965120
  O   -0.336301378  -3.165903468  -2.277310459
  H   -0.454613776  -2.931281587  -3.201984751
  H    0.451481962  -3.715830945  -2.244981198
