12
charge=0 charge_a=0 charge_b=0 selection_a=1-2 selection_b=3-12 scaling=0.9 benchmark_Eint=-6.088 benchmark_unit=kcal/mol group=XH-O
  H    0.309262970   0.454463349  -0.100684978
 Br   -0.518597461   1.622144528   0.192620142
  H   -1.357051573  -2.578638782  -0.641811143
  H   -1.235690597  -1.230550330   0.504861860
  H   -0.846357366  -2.899635923   1.002690923
  H    2.414276634  -2.967307717  -0.919191064
  H    0.911134675  -3.905142434  -1.142349799
  C   -0.788055772  -2.169289039   0.195560448
  C    0.641282600  -1.977602006  -0.237093209
  O    1.133793955  -0.875886828  -0.386088993
  C    1.451790475  -3.221703012  -0.486873807
  H    1.604563894  -3.745689985   0.458715562
