12
charge=0 charge_a=0 charge_b=0 selection_a=1-2 selection_b=3-12 scaling=1.05 benchmark_Eint=-6.842 benchmark_unit=kcal/mol group=XH-O
  H    0.309262970   0.454463349  -0.100684978
 Br   -0.518597461   1.622144528   0.192620142
  H   -1.219629742  -2.800363811  -0.689378479
  H   -1.098268766  -1.452275359   0.457294524
  H   -0.708935535  -3.121360952   0.955123587
  H    2.551698465  -3.189032746  -0.966758400
  H    1.048556506  -4.126867463  -1.189917135
  C   -0.650633941  -2.391014068   0.147993112
  C    0.778704431  -2.199327035  -0.284660545
  O    1.271215786  -1.097611857  -0.433656329
  C    1.589212306  -3.443428041  -0.534441143
  H    1.741985725  -3.967415014   0.411148226
