12
charge=0 charge_a=0 charge_b=0 selection_a=1-2 selection_b=3-12 scaling=1.25 benchmark_Eint=-5.614 benchmark_unit=kcal/mol group=XH-O
  H    0.309262970   0.454463349  -0.100684978
 Br   -0.518597461   1.622144528   0.192620142
  H   -1.036400634  -3.095997184  -0.752801593
  H   -0.915039658  -1.747908732   0.393871410
  H   -0.525706427  -3.416994325   0.891700473
  H    2.734927573  -3.484666119  -1.030181514
  H    1.231785614  -4.422500836  -1.253340249
  C   -0.467404833  -2.686647441   0.084569998
  C    0.961933539  -2.494960408  -0.348083659
  O    1.454444894  -1.393245230  -0.497079443
  C    1.772441414  -3.739061414  -0.597864257
  H    1.925214833  -4.263048387   0.347725112
