7
charge=0 charge_a=0 charge_b=0 selection_a=1-2 selection_b=3-7 scaling=1.5 benchmark_Eint=-1.245 benchmark_unit=kcal/mol group=XH-O
  H   -0.163536921  -0.330059341  -0.667407782
 Br   -0.404759841   0.050558093  -2.024235094
 Cl   -0.332374896  -1.661026758   3.418819050
  O   -1.523973556  -1.038096470   3.937074381
  O   -0.552531961  -2.625177984   2.383952161
  O    0.413736222  -0.381800016   2.496685627
  H    0.141560804   0.439130084   2.936242060
