7
charge=0 charge_a=0 charge_b=0 selection_a=1-2 selection_b=3-7 scaling=1.05 benchmark_Eint=-2.666 benchmark_unit=kcal/mol group=XH-O
  H   -0.163536921  -0.330059341  -0.667407782
 Br   -0.404759841   0.050558093  -2.024235094
 Cl   -0.505556839  -1.645504556   2.469591027
  O   -1.697155499  -1.022574267   2.987846358
  O   -0.725713904  -2.609655781   1.434724138
  O    0.240554279  -0.366277813   1.547457604
  H   -0.031621139   0.454652286   1.987014037
