7
charge=0 charge_a=0 charge_b=0 selection_a=1-2 selection_b=3-7 scaling=1.1 benchmark_Eint=-2.559 benchmark_unit=kcal/mol group=XH-O
  H   -0.163536921  -0.330059341  -0.667407782
 Br   -0.404759841   0.050558093  -2.024235094
 Cl   -0.486314401  -1.647229245   2.575060808
  O   -1.677913061  -1.024298956   3.093316139
  O   -0.706471466  -2.611380470   1.540193919
  O    0.259796717  -0.368002502   1.652927385
  H   -0.012378701   0.452927597   2.092483818
