7
charge=0 charge_a=0 charge_b=0 selection_a=1-2 selection_b=3-7 scaling=1.0 benchmark_Eint=-2.684 benchmark_unit=kcal/mol group=XH-O
  H   -0.163536921  -0.330059341  -0.667407782
 Br   -0.404759841   0.050558093  -2.024235094
 Cl   -0.524799277  -1.643779867   2.364121247
  O   -1.716397937  -1.020849578   2.882376578
  O   -0.744956342  -2.607931092   1.329254358
  O    0.221311841  -0.364553124   1.441987824
  H   -0.050863577   0.456376975   1.881544257
