7
charge=0 charge_a=0 charge_b=0 selection_a=1-2 selection_b=3-7 scaling=1.25 benchmark_Eint=-2.038 benchmark_unit=kcal/mol group=XH-O
  H   -0.163536921  -0.330059341  -0.667407782
 Br   -0.404759841   0.050558093  -2.024235094
 Cl   -0.428587086  -1.652403313   2.891470148
  O   -1.620185746  -1.029473024   3.409725480
  O   -0.648744152  -2.616554538   1.856603260
  O    0.317524032  -0.373176570   1.969336726
  H    0.045348614   0.447753529   2.408893158
