13
charge=0 charge_a=0 charge_b=0 selection_a=1-2 selection_b=3-13 scaling=1.05 benchmark_Eint=-7.070 benchmark_unit=kcal/mol group=XH-O
  H   -0.416205839  -0.700077117  -0.786781148
 Br    0.421428782  -1.879138177  -0.916206654
  H    1.769627234   2.427546752   0.995711300
  H    1.140127491   2.581706761  -0.665759513
  H    1.621534361   0.975224014  -0.055319472
  H    0.129142904  -0.295936730   1.865195216
  H   -1.341445840   0.467999737   2.527724499
  H    0.257978361   1.139973313   2.941021779
  O   -1.003036035   2.981967141   1.194207309
  S   -0.479116523   1.714598343   0.762482033
  O   -1.187345362   0.980954677  -0.273452407
  C    1.199051023   1.940588954   0.210302118
  C   -0.327612027   0.640234175   2.174929578
