12
charge=0 charge_a=0 charge_b=0 selection_a=1-2 selection_b=3-12 scaling=1.5 benchmark_Eint=-5.133 benchmark_unit=kcal/mol group=XH-O
  H   -0.214481803   0.209632281  -0.812159610
 Br    0.536944582  -0.601473979  -1.791779043
  H    1.045481740  -0.138458866   1.959012834
  H    0.776716088   0.039181420   3.713744638
  H    1.085650138   1.486365181   2.692946028
  H   -2.589981518   2.068392989   3.603166716
  H   -0.929208984   2.718867604   3.571317464
  C    0.633362968   0.498020147   2.737490808
  S   -1.137805736   0.642390765   2.403441300
  O   -1.259538936   1.421262951   1.119700498
  C   -1.535972504   1.826378538   3.706943126
  H   -1.352704362   1.366397754   4.675977972
