12
charge=0 charge_a=0 charge_b=0 selection_a=1-2 selection_b=3-12 scaling=1.1 benchmark_Eint=-8.840 benchmark_unit=kcal/mol group=XH-O
  H   -0.214481803   0.209632281  -0.812159610
 Br    0.536944582  -0.601473979  -1.791779043
  H    1.324163642  -0.461560378   1.443850138
  H    1.055397990  -0.283920092   3.198581942
  H    1.364332040   1.163263669   2.177783333
  H   -2.311299616   1.745291477   3.088004021
  H   -0.650527082   2.395766092   3.056154768
  C    0.912044870   0.174918635   2.222328112
  S   -0.859123834   0.319289253   1.888278605
  O   -0.980857034   1.098161439   0.604537803
  C   -1.257290602   1.503277026   3.191780430
  H   -1.074022460   1.043296242   4.160815277
