12
charge=0 charge_a=0 charge_b=0 selection_a=1-2 selection_b=3-12 scaling=1.05 benchmark_Eint=-9.091 benchmark_unit=kcal/mol group=XH-O
  H   -0.214481803   0.209632281  -0.812159610
 Br    0.536944582  -0.601473979  -1.791779043
  H    1.358998879  -0.501948067   1.379454801
  H    1.090233228  -0.324307781   3.134186605
  H    1.399167277   1.122875980   2.113387996
  H   -2.276464378   1.704903788   3.023608684
  H   -0.615691845   2.355378403   2.991759431
  C    0.946880107   0.134530946   2.157932775
  S   -0.824288596   0.278901564   1.823883268
  O   -0.946021796   1.057773750   0.540142466
  C   -1.222455365   1.462889337   3.127385093
  H   -1.039187222   1.002908553   4.096419940
