14
charge=0 charge_a=0 charge_b=0 selection_a=1-2 selection_b=3-14 scaling=0.8 benchmark_Eint=-5.034 benchmark_unit=kcal/mol group=XH-O
  H   -0.435743197  -0.504495451   0.000000000
 Br   -0.101991652  -1.933123719   0.000000000
  C   -1.048263081   3.187213444   0.000000000
  H   -1.691664092   3.192538269  -0.877664029
  H   -0.434506148   4.085490303   0.000000000
  H   -1.691664092   3.192538269   0.877664029
  C   -0.244227509   1.909476743   0.000000000
  O   -0.808202181   0.817069237   0.000000000
  N    1.095700200   2.038649322   0.000000000
  H    1.484530297   2.963078837   0.000000000
  C    1.998386157   0.898363724   0.000000000
  H    1.841184452   0.278046891   0.879891894
  H    1.841184452   0.278046891  -0.879891894
  H    3.020405048   1.265297614   0.000000000
