14
charge=0 charge_a=0 charge_b=0 selection_a=1-2 selection_b=3-14 scaling=1.5 benchmark_Eint=-4.920 benchmark_unit=kcal/mol group=XH-O
  H   -0.435743197  -0.504495451   0.000000000
 Br   -0.101991652  -1.933123719   0.000000000
  C   -1.374164692   4.343582546   0.000000000
  H   -2.017565703   4.348907371  -0.877664029
  H   -0.760407759   5.241859405   0.000000000
  H   -2.017565703   4.348907371   0.877664029
  C   -0.570129120   3.065845845   0.000000000
  O   -1.134103792   1.973438339   0.000000000
  N    0.769798589   3.195018424   0.000000000
  H    1.158628686   4.119447939   0.000000000
  C    1.672484546   2.054732826   0.000000000
  H    1.515282841   1.434415993   0.879891894
  H    1.515282841   1.434415993  -0.879891894
  H    2.694503437   2.421666716   0.000000000
