10
charge=0 charge_a=0 charge_b=0 selection_a=1-2 selection_b=3-10 scaling=1.1 benchmark_Eint=-4.596 benchmark_unit=kcal/mol group=XH-O
  H   -0.099736348  -0.509971450  -1.362657007
 Br    0.810684881   0.437116880  -1.936976715
  H   -2.308819597  -1.235176087   0.516829454
  H    0.627993032  -1.851143255   2.493718107
  H    0.025398415   1.177180805   0.605395755
  P   -0.828432203  -0.395090654   1.843877521
  O   -1.747921139  -0.513467706   2.965498925
  O   -1.351069166  -1.133267859   0.504367571
  O   -0.505167498   1.083305640   1.410567121
  O    0.622275551  -1.022871084   2.003617552
