10
charge=0 charge_a=0 charge_b=0 selection_a=1-2 selection_b=3-10 scaling=0.8 benchmark_Eint=-1.056 benchmark_unit=kcal/mol group=XH-O
  H   -0.099736348  -0.509971450  -1.362657007
 Br    0.810684881   0.437116880  -1.936976715
  H   -1.967547010  -1.065186157   0.007640933
  H    0.969265619  -1.681153325   1.984529586
  H    0.366671002   1.347170735   0.096207234
  P   -0.487159616  -0.225100724   1.334689000
  O   -1.406648552  -0.343477776   2.456310404
  O   -1.009796579  -0.963277929  -0.004820950
  O   -0.163894911   1.253295570   0.901378600
  O    0.963548138  -0.852881154   1.494429031
