10
charge=0 charge_a=0 charge_b=0 selection_a=1-2 selection_b=3-10 scaling=1.05 benchmark_Eint=-4.833 benchmark_unit=kcal/mol group=XH-O
  H   -0.099736348  -0.509971450  -1.362657007
 Br    0.810684881   0.437116880  -1.936976715
  H   -2.251940832  -1.206844432   0.431964701
  H    0.684871797  -1.822811600   2.408853354
  H    0.082277180   1.205512460   0.520531002
  P   -0.771553438  -0.366758999   1.759012768
  O   -1.691042374  -0.485136051   2.880634172
  O   -1.294190401  -1.104936204   0.419502818
  O   -0.448288733   1.111637295   1.325702368
  O    0.679154316  -0.994539429   1.918752799
