5
charge=0 charge_a=0 charge_b=0 selection_a=1-2 selection_b=3-5 scaling=1.1 benchmark_Eint=-2.317 benchmark_unit=kcal/mol group=XH-O
  H   -0.355325381  -0.589617444   0.000000000
 Br    0.180581142  -1.914407193   0.000000000
  O   -1.165925752   1.623880442   0.000000000
  S   -0.476832450   2.886935628   0.000000000
  O    0.955787121   2.892906376   0.000000000
