5
charge=0 charge_a=0 charge_b=0 selection_a=1-2 selection_b=3-5 scaling=0.95 benchmark_Eint=-2.270 benchmark_unit=kcal/mol group=XH-O
  H   -0.355325381  -0.589617444   0.000000000
 Br    0.180581142  -1.914407193   0.000000000
  O   -1.055389338   1.322039821   0.000000000
  S   -0.366296036   2.585095007   0.000000000
  O    1.066323535   2.591065756   0.000000000
