5
charge=0 charge_a=0 charge_b=0 selection_a=1-2 selection_b=3-5 scaling=0.85 benchmark_Eint=-1.175 benchmark_unit=kcal/mol group=XH-O
  H   -0.355325381  -0.589617444   0.000000000
 Br    0.180581142  -1.914407193   0.000000000
  O   -0.981698395   1.120812740   0.000000000
  S   -0.292605093   2.383867926   0.000000000
  O    1.140014478   2.389838675   0.000000000
