5
charge=0 charge_a=0 charge_b=0 selection_a=1-2 selection_b=3-5 scaling=1.5 benchmark_Eint=-1.105 benchmark_unit=kcal/mol group=XH-O
  H   -0.355325381  -0.589617444   0.000000000
 Br    0.180581142  -1.914407193   0.000000000
  O   -1.460689523   2.428788764   0.000000000
  S   -0.771596221   3.691843950   0.000000000
  O    0.661023350   3.697814698   0.000000000
