5
charge=0 charge_a=0 charge_b=0 selection_a=1-2 selection_b=3-5 scaling=2.0 benchmark_Eint=-0.439 benchmark_unit=kcal/mol group=XH-O
  H   -0.355325381  -0.589617444   0.000000000
 Br    0.180581142  -1.914407193   0.000000000
  O   -1.829144237   3.434924166   0.000000000
  S   -1.140050935   4.697979352   0.000000000
  O    0.292568636   4.703950101   0.000000000
