19
charge=0 charge_a=0 charge_b=0 selection_a=1-2 selection_b=3-19 scaling=1.25 benchmark_Eint=-7.663 benchmark_unit=kcal/mol group=XH-O
  H    0.511324563   0.178578017  -1.460319558
 Br   -0.091155493   0.016740429  -2.788376537
  H   -1.225497773   1.782101753   0.170714363
  H   -1.579783625  -1.664159142   2.928252177
  H   -0.040039788  -2.225208335   3.628015578
  H   -0.846260528  -3.184184580   2.362446216
  H   -2.612931260   1.713636465   1.290302844
  H   -2.139299548   0.273178675   0.356188626
  H    0.906651079   2.167640274   3.671626895
  H    2.255878643   1.280990067   4.421052996
  H    2.379912942   1.816711475   2.727178908
  C   -0.644521736  -2.182183790   2.725070599
  O    0.082400327  -1.514307172   1.679402525
  P    0.420546161   0.017542414   1.732768997
  O    1.163516924   0.462064602   0.545702801
  O   -0.937604318   0.794809707   1.984322812
  C   -1.779077786   1.161947198   0.869968118
  O    1.156256025   0.178671752   3.115418266
  C    1.708227172   1.451757221   3.500699619
