19
charge=0 charge_a=0 charge_b=0 selection_a=1-2 selection_b=3-19 scaling=1.5 benchmark_Eint=-5.267 benchmark_unit=kcal/mol group=XH-O
  H    0.511324563   0.178578017  -1.460319558
 Br   -0.091155493   0.016740429  -2.788376537
  H   -1.095059300   1.838799070   0.571918834
  H   -1.449345152  -1.607461825   3.329456648
  H    0.090398684  -2.168511018   4.029220050
  H   -0.715822056  -3.127487263   2.763650688
  H   -2.482492788   1.770333782   1.691507316
  H   -2.008861076   0.329875992   0.757393098
  H    1.037089552   2.224337591   4.072831366
  H    2.386317116   1.337687384   4.822257468
  H    2.510351414   1.873408792   3.128383380
  C   -0.514083264  -2.125486473   3.126275070
  O    0.212838800  -1.457609855   2.080606996
  P    0.550984634   0.074239731   2.133973468
  O    1.293955396   0.518761919   0.946907272
  O   -0.807165846   0.851507024   2.385527284
  C   -1.648639314   1.218644515   1.271172590
  O    1.286694498   0.235369069   3.516622738
  C    1.838665644   1.508454538   3.901904090
