19
charge=0 charge_a=0 charge_b=0 selection_a=1-2 selection_b=3-19 scaling=0.8 benchmark_Eint=-5.195 benchmark_unit=kcal/mol group=XH-O
  H    0.511324563   0.178578017  -1.460319558
 Br   -0.091155493   0.016740429  -2.788376537
  H   -1.460287023   1.680046582  -0.551453686
  H   -1.814572875  -1.766214313   2.206084128
  H   -0.274829038  -2.327263506   2.905847529
  H   -1.081049778  -3.286239751   1.640278167
  H   -2.847720510   1.611581294   0.568134795
  H   -2.374088798   0.171123504  -0.365979423
  H    0.671861829   2.065585103   2.949458846
  H    2.021089393   1.178934896   3.698884947
  H    2.145123692   1.714656304   2.005010859
  C   -0.879310986  -2.284238961   2.002902550
  O   -0.152388923  -1.616362343   0.957234476
  P    0.185756911  -0.084512757   1.010600948
  O    0.928727674   0.360009431  -0.176465248
  O   -1.172393568   0.692754536   1.262154763
  C   -2.013867036   1.059892027   0.147800069
  O    0.921466775   0.076616581   2.393250217
  C    1.473437922   1.349702050   2.778531570
