19
charge=0 charge_a=0 charge_b=0 selection_a=1-2 selection_b=3-19 scaling=2.0 benchmark_Eint=-2.342 benchmark_unit=kcal/mol group=XH-O
  H    0.511324563   0.178578017  -1.460319558
 Br   -0.091155493   0.016740429  -2.788376537
  H   -0.834182356   1.952193704   1.374327778
  H   -1.188468208  -1.494067191   4.131865592
  H    0.351275629  -2.055116384   4.831628993
  H   -0.454945111  -3.014092629   3.566059631
  H   -2.221615843   1.883728416   2.493916259
  H   -1.747984131   0.443270626   1.559802041
  H    1.297966496   2.337732225   4.875240310
  H    2.647194060   1.451082018   5.624666411
  H    2.771228359   1.986803426   3.930792323
  C   -0.253206319  -2.012091839   3.928684014
  O    0.473715744  -1.344215221   2.883015940
  P    0.811861578   0.187634365   2.936382412
  O    1.554832341   0.632156553   1.749316216
  O   -0.546288901   0.964901658   3.187936227
  C   -1.387762369   1.332039149   2.073581533
  O    1.547571442   0.348763703   4.319031681
  C    2.099542589   1.621849172   4.704313034
