5
charge=0 charge_a=0 charge_b=0 selection_a=1-2 selection_b=3-5 scaling=1.1 benchmark_Eint=-4.601 benchmark_unit=kcal/mol group=XH-O
  H    0.071394933  -0.809742021   0.000000000
 Br   -0.001576637   0.634496597   0.000000000
  O    0.053828253  -2.885414309   0.000000000
  H   -0.415383964  -3.226716344   0.766571910
  H   -0.415383964  -3.226716344  -0.766571910
