10
charge=0 charge_a=0 charge_b=0 selection_a=1-2 selection_b=3-10 scaling=1.25 benchmark_Eint=-4.012 benchmark_unit=kcal/mol group=XH-O
  H    0.041635603   0.232833156  -0.352100741
  I    0.315999267   1.350696445  -1.522499325
  H    0.809934557   1.359628068   1.712066734
  H   -0.029873386  -1.676752092   4.192879516
  H    1.399244781  -0.666035933   4.526707700
  H   -0.205359616  -0.005351071   4.786945214
  O   -0.050046716  -0.806620983   1.791228816
  C    0.354377886  -0.172374858   2.739890748
  O    0.840281423   1.074593102   2.640163220
  C    0.376355934  -0.672663676   4.152665998
