10
charge=0 charge_a=0 charge_b=0 selection_a=1-2 selection_b=3-10 scaling=1.5 benchmark_Eint=-2.485 benchmark_unit=kcal/mol group=XH-O
  H    0.041635603   0.232833156  -0.352100741
  I    0.315999267   1.350696445  -1.522499325
  H    0.791598094   1.151737240   2.140732646
  H   -0.048209850  -1.884642920   4.621545428
  H    1.380908318  -0.873926760   4.955373612
  H   -0.223696080  -0.213241898   5.215611125
  O   -0.068383180  -1.014511810   2.219894728
  C    0.336041422  -0.380265686   3.168556659
  O    0.821944960   0.866702274   3.068829131
  C    0.358019470  -0.880554504   4.581331910
