10
charge=0 charge_a=0 charge_b=0 selection_a=1-2 selection_b=3-10 scaling=0.9 benchmark_Eint=-4.244 benchmark_unit=kcal/mol group=XH-O
  H    0.041635603   0.232833156  -0.352100741
  I    0.315999267   1.350696445  -1.522499325
  H    0.835605606   1.650675227   1.111934458
  H   -0.004202336  -1.385704933   3.592747240
  H    1.424915830  -0.374988774   3.926575424
  H   -0.179688566   0.285696088   4.186812937
  O   -0.024375666  -0.515573824   1.191096540
  C    0.380048936   0.118672301   2.139758471
  O    0.865952472   1.365640261   2.040030943
  C    0.402026984  -0.381616517   3.552533722
