10
charge=0 charge_a=0 charge_b=0 selection_a=1-2 selection_b=3-10 scaling=0.8 benchmark_Eint=-2.010 benchmark_unit=kcal/mol group=XH-O
  H    0.041635603   0.232833156  -0.352100741
  I    0.315999267   1.350696445  -1.522499325
  H    0.842940192   1.733831558   0.940468094
  H    0.003132249  -1.302548602   3.421280876
  H    1.432250416  -0.291832443   3.755109060
  H   -0.172353981   0.368852419   4.015346573
  O   -0.017041081  -0.432417493   1.019630176
  C    0.387383521   0.201828632   1.968292107
  O    0.873287058   1.448796592   1.868564579
  C    0.409361569  -0.298460186   3.381067358
