10
charge=0 charge_a=0 charge_b=0 selection_a=1-2 selection_b=3-10 scaling=1.05 benchmark_Eint=-4.947 benchmark_unit=kcal/mol group=XH-O
  H    0.041635603   0.232833156  -0.352100741
  I    0.315999267   1.350696445  -1.522499325
  H    0.824603728   1.525940730   1.369134005
  H   -0.015204215  -1.510439430   3.849946787
  H    1.413913952  -0.499723271   4.183774971
  H   -0.190690445   0.160961591   4.444012484
  O   -0.035377545  -0.640308321   1.448296087
  C    0.369047057  -0.006062196   2.396958018
  O    0.854950594   1.240905764   2.297230490
  C    0.391025105  -0.506351014   3.809733269
