12
charge=0 charge_a=0 charge_b=0 selection_a=1-2 selection_b=3-12 scaling=1.1 benchmark_Eint=-4.933 benchmark_unit=kcal/mol group=XH-O
  H   -0.043982742  -0.193474314  -0.260336338
  I   -0.800444696  -0.505838751  -1.684073242
  H   -0.688038507  -2.157898354   3.165273765
  H   -1.182402745  -1.466300836   1.596918782
  H   -1.656312060  -0.698547473   3.124277358
  H    1.860874723   0.562672909   3.830886612
  H    1.475442414  -1.113028140   4.281972535
  C   -0.859607639  -1.237299884   2.607189444
  C    0.382688723  -0.384298210   2.602199350
  O    0.825030828   0.112543593   1.586284142
  C    1.062357245  -0.165842121   3.929537885
  H    0.341668949   0.162595457   4.679162524
