12
charge=0 charge_a=0 charge_b=0 selection_a=1-2 selection_b=3-12 scaling=0.85 benchmark_Eint=-3.395 benchmark_unit=kcal/mol group=XH-O
  H   -0.043982742  -0.193474314  -0.260336338
  I   -0.800444696  -0.505838751  -1.684073242
  H   -0.885541591  -2.227447879   2.745587292
  H   -1.379905829  -1.535850361   1.177232309
  H   -1.853815144  -0.768096998   2.704590885
  H    1.663371639   0.493123384   3.411200139
  H    1.277939330  -1.182577665   3.862286062
  C   -1.057110723  -1.306849409   2.187502971
  C    0.185185639  -0.453847735   2.182512877
  O    0.627527744   0.042994068   1.166597669
  C    0.864854161  -0.235391646   3.509851412
  H    0.144165865   0.093045932   4.259476051
