12
charge=0 charge_a=0 charge_b=0 selection_a=1-2 selection_b=3-12 scaling=1.5 benchmark_Eint=-2.742 benchmark_unit=kcal/mol group=XH-O
  H   -0.043982742  -0.193474314  -0.260336338
  I   -0.800444696  -0.505838751  -1.684073242
  H   -0.372033573  -2.046619116   3.836772122
  H   -0.866397811  -1.355021598   2.268417138
  H   -1.340307126  -0.587268234   3.795775714
  H    2.176879657   0.673952148   4.502384968
  H    1.791447348  -1.001748902   4.953470892
  C   -0.543602705  -1.126020646   3.278687800
  C    0.698693657  -0.273018972   3.273697706
  O    1.141035762   0.223822832   2.257782498
  C    1.378362179  -0.054562882   4.601036242
  H    0.657673883   0.273874696   5.350660880
