7
charge=0 charge_a=0 charge_b=0 selection_a=1-2 selection_b=3-7 scaling=0.95 benchmark_Eint=-2.663 benchmark_unit=kcal/mol group=XH-O
  H   -0.220400800   0.435720945  -1.006476719
  I   -0.542220943  -0.870537170  -1.898724404
 Br   -1.086536006  -1.250890563   1.823138801
  O   -0.687430535  -1.547417580   3.362637875
  O   -2.620495220  -0.778090198   1.714841423
  O   -0.126191455   0.294030103   1.498827644
  H    0.002389356   0.681344416   2.380434115
