7
charge=0 charge_a=0 charge_b=0 selection_a=1-2 selection_b=3-7 scaling=0.8 benchmark_Eint=-0.197 benchmark_unit=kcal/mol group=XH-O
  H   -0.220400800   0.435720945  -1.006476719
  I   -0.542220943  -0.870537170  -1.898724404
 Br   -1.101411165  -1.228518325   1.427564428
  O   -0.702305694  -1.525045342   2.967063502
  O   -2.635370379  -0.755717960   1.319267050
  O   -0.141066614   0.316402341   1.103253271
  H   -0.012485803   0.703716654   1.984859742
