7
charge=0 charge_a=0 charge_b=0 selection_a=1-2 selection_b=3-7 scaling=1.25 benchmark_Eint=-1.663 benchmark_unit=kcal/mol group=XH-O
  H   -0.220400800   0.435720945  -1.006476719
  I   -0.542220943  -0.870537170  -1.898724404
 Br   -1.056785686  -1.295635040   2.614287547
  O   -0.657680215  -1.592162057   4.153786621
  O   -2.590744900  -0.822834675   2.505990169
  O   -0.096441135   0.249285626   2.289976390
  H    0.032139676   0.636599939   3.171582861
