7
charge=0 charge_a=0 charge_b=0 selection_a=1-2 selection_b=3-7 scaling=2.0 benchmark_Eint=-0.227 benchmark_unit=kcal/mol group=XH-O
  H   -0.220400800   0.435720945  -1.006476719
  I   -0.542220943  -0.870537170  -1.898724404
 Br   -0.982409887  -1.407496231   4.592159412
  O   -0.583304416  -1.704023248   6.131658486
  O   -2.516369101  -0.934695866   4.483862034
  O   -0.022065336   0.137424435   4.267848255
  H    0.106515475   0.524738748   5.149454726
