13
charge=0 charge_a=0 charge_b=0 selection_a=1-2 selection_b=3-13 scaling=1.0 benchmark_Eint=-5.521 benchmark_unit=kcal/mol group=XH-O
  H   -0.790334198   0.049270830   0.350571802
  I    0.016018952   0.073690300   1.770702494
  H    1.814352271  -1.391836029  -2.671761212
  H    0.326907838  -2.276560041  -2.241726747
  H    1.187141758  -1.343622308  -0.987327243
  H    1.185444913   1.398038737  -1.034019206
  H    0.325429360   2.286347421  -2.320610640
  H    1.813605363   1.388101618  -2.718761798
  O   -0.344310666  -0.022572907  -3.882224951
  S   -0.093989381   0.001575780  -2.465846083
  O   -1.220274019   0.016608164  -1.551537984
  C    0.929561891  -1.394062551  -2.041931699
  C    0.928447304   1.411678025  -2.089874704
