13
charge=0 charge_a=0 charge_b=0 selection_a=1-2 selection_b=3-13 scaling=0.8 benchmark_Eint=-2.130 benchmark_unit=kcal/mol group=XH-O
  H   -0.790334198   0.049270830   0.350571802
  I    0.016018952   0.073690300   1.770702494
  H    1.900340235  -1.385303496  -2.291339255
  H    0.412895802  -2.270027508  -1.861304790
  H    1.273129722  -1.337089775  -0.606905286
  H    1.271432877   1.404571270  -0.653597249
  H    0.411417324   2.292879954  -1.940188683
  H    1.899593327   1.394634151  -2.338339841
  O   -0.258322702  -0.016040374  -3.501802994
  S   -0.008001417   0.008108313  -2.085424126
  O   -1.134286055   0.023140697  -1.171116027
  C    1.015549855  -1.387530018  -1.661509742
  C    1.014435268   1.418210558  -1.709452747
