13
charge=0 charge_a=0 charge_b=0 selection_a=1-2 selection_b=3-13 scaling=1.5 benchmark_Eint=-2.778 benchmark_unit=kcal/mol group=XH-O
  H   -0.790334198   0.049270830   0.350571802
  I    0.016018952   0.073690300   1.770702494
  H    1.599382360  -1.408167362  -3.622816105
  H    0.111937928  -2.292891374  -3.192781640
  H    0.972171848  -1.359953641  -1.938382136
  H    0.970475002   1.381707404  -1.985074099
  H    0.110459450   2.270016088  -3.271665533
  H    1.598635452   1.371770285  -3.669816691
  O   -0.559280576  -0.038904240  -4.833279844
  S   -0.308959292  -0.014755553  -3.416900976
  O   -1.435243930   0.000276831  -2.502592877
  C    0.714591980  -1.410393884  -2.992986592
  C    0.713477394   1.395346692  -3.040929597
