8
charge=0 charge_a=0 charge_b=0 selection_a=1-2 selection_b=3-8 scaling=0.9 benchmark_Eint=-3.833 benchmark_unit=kcal/mol group=XH-O
  H    0.556335727  -0.041805460   0.741131902
  I   -0.132136610   0.038478156  -0.745646310
  O    1.027683762  -0.193198200   2.361858183
  H    1.356258011  -1.088612048   2.476333163
  C   -0.156284205  -0.020924483   3.144917512
  H   -0.486655387   1.001516547   2.986534748
  H   -0.949937954  -0.699698351   2.828085830
  H    0.049037313  -0.166654145   4.206142749
