8
charge=0 charge_a=0 charge_b=0 selection_a=1-2 selection_b=3-8 scaling=1.25 benchmark_Eint=-3.606 benchmark_unit=kcal/mol group=XH-O
  H    0.556335727  -0.041805460   0.741131902
  I   -0.132136610   0.038478156  -0.745646310
  O    1.210985776  -0.252073155   2.992140626
  H    1.539560025  -1.147487003   3.106615606
  C    0.027017809  -0.079799438   3.775199955
  H   -0.303353373   0.942641592   3.616817191
  H   -0.766635940  -0.758573306   3.458368273
  H    0.232339327  -0.225529100   4.836425192
