8
charge=0 charge_a=0 charge_b=0 selection_a=1-2 selection_b=3-8 scaling=1.1 benchmark_Eint=-4.339 benchmark_unit=kcal/mol group=XH-O
  H    0.556335727  -0.041805460   0.741131902
  I   -0.132136610   0.038478156  -0.745646310
  O    1.132427770  -0.226841032   2.722019579
  H    1.461002019  -1.122254880   2.836494559
  C   -0.051540197  -0.054567315   3.505078908
  H   -0.381911379   0.967873715   3.346696144
  H   -0.845193946  -0.733341183   3.188247226
  H    0.153781321  -0.200296977   4.566304145
