8
charge=0 charge_a=0 charge_b=0 selection_a=1-2 selection_b=3-8 scaling=2.0 benchmark_Eint=-0.860 benchmark_unit=kcal/mol group=XH-O
  H    0.556335727  -0.041805460   0.741131902
  I   -0.132136610   0.038478156  -0.745646310
  O    1.603775805  -0.378233772   4.342745860
  H    1.932350054  -1.273647620   4.457220840
  C    0.419807838  -0.205960055   5.125805189
  H    0.089436656   0.816480975   4.967422425
  H   -0.373845911  -0.884733923   4.808973507
  H    0.625129356  -0.351689717   6.187030426
