14
charge=0 charge_a=0 charge_b=0 selection_a=1-2 selection_b=3-14 scaling=1.1 benchmark_Eint=-7.642 benchmark_unit=kcal/mol group=XH-O
  H   -0.394127428  -1.488193020  -0.018286073
  I   -0.060700150  -0.390244536  -1.242531023
  C   -0.887661006  -0.647965025   2.721805210
  H    0.093876300  -0.280518245   2.429305121
  H   -1.077081458  -0.384180666   3.759695831
  H   -1.615987798  -0.150734867   2.084373735
  C   -0.950568820  -2.133066702   2.474547532
  O   -0.762104144  -2.628080861   1.360996098
  N   -1.225582227  -2.917539106   3.531987277
  H   -1.372575517  -2.488832886   4.426842729
  C   -1.311093682  -4.363778404   3.414165483
  H   -0.364578246  -4.778774675   3.072419374
  H   -1.555335757  -4.778935422   4.387395853
  H   -2.081269883  -4.645103131   2.698484812
