14
charge=0 charge_a=0 charge_b=0 selection_a=1-2 selection_b=3-14 scaling=0.95 benchmark_Eint=-7.641 benchmark_unit=kcal/mol group=XH-O
  H   -0.394127428  -1.488193020  -0.018286073
  I   -0.060700150  -0.390244536  -1.242531023
  C   -0.837482363  -0.492525774   2.533721278
  H    0.144054943  -0.125078994   2.241221189
  H   -1.026902815  -0.228741415   3.571611899
  H   -1.565809155   0.004704384   1.896289803
  C   -0.900390177  -1.977627451   2.286463600
  O   -0.711925501  -2.472641610   1.172912166
  N   -1.175403584  -2.762099855   3.343903345
  H   -1.322396874  -2.333393635   4.238758797
  C   -1.260915039  -4.208339153   3.226081551
  H   -0.314399603  -4.623335424   2.884335442
  H   -1.505157114  -4.623496171   4.199311921
  H   -2.031091240  -4.489663880   2.510400880
