7
charge=0 charge_a=0 charge_b=0 selection_a=1-2 selection_b=3-7 scaling=1.1 benchmark_Eint=-3.668 benchmark_unit=kcal/mol group=XH-O
  H    0.007478603   0.065599768  -0.422887203
  I    0.140066758   1.105359789  -1.659105263
  P   -0.387827542   0.417736017   2.735868519
 Cl   -1.966343902   1.613995423   2.404854562
 Cl    1.177006106   1.675042851   2.788698731
 Cl   -0.609317490  -0.175573072   4.643553634
  O   -0.250299042  -0.675248520   1.783127661
