7
charge=0 charge_a=0 charge_b=0 selection_a=1-2 selection_b=3-7 scaling=0.85 benchmark_Eint=-2.411 benchmark_unit=kcal/mol group=XH-O
  H    0.007478603   0.065599768  -0.422887203
  I    0.140066758   1.105359789  -1.659105263
  P   -0.329241714   0.586110628   2.234501504
 Cl   -1.907758074   1.782370034   1.903487547
 Cl    1.235591934   1.843417462   2.287331716
 Cl   -0.550731662  -0.007198461   4.142186619
  O   -0.191713214  -0.506873909   1.281760646
