19
charge=0 charge_a=0 charge_b=0 selection_a=1-2 selection_b=3-19 scaling=1.5 benchmark_Eint=-4.594 benchmark_unit=kcal/mol group=XH-O
  H   -0.787863116   0.035223446   0.101035769
  I   -1.876331631  -0.028579213  -1.150515721
  H   -0.957293218  -2.153974722   2.053622855
  H   -0.182151344  -0.843013716   6.270513182
  H    0.369866282   0.844161542   6.420414257
  H    1.518231350  -0.494579602   6.665720424
  H   -2.002744496  -2.754551234   3.362607420
  H   -0.233688540  -2.792031868   3.551900287
  H   -2.547337224   1.427029920   3.069046636
  H   -1.962755436   3.000443784   3.666002139
  H   -1.259424706   2.287957572   2.192355534
  C    0.649449042  -0.159513828   6.109500574
  O    1.035109484  -0.154883782   4.723791923
  P    0.002761239   0.113335986   3.570214017
  O    0.651111654   0.099924346   2.250952352
  O   -1.173436256  -0.937225704   3.730438304
  C   -1.074487138  -2.244058096   3.129819810
  O   -0.692052392   1.453301420   4.015821893
  C   -1.681532696   2.077170834   3.171712136
