19
charge=0 charge_a=0 charge_b=0 selection_a=1-2 selection_b=3-19 scaling=0.95 benchmark_Eint=-7.614 benchmark_unit=kcal/mol group=XH-O
  H   -0.787863116   0.035223446   0.101035769
  I   -1.876331631  -0.028579213  -1.150515721
  H   -1.484917300  -2.177698386   1.265320108
  H   -0.709775426  -0.866737380   5.482210435
  H   -0.157757801   0.820437879   5.632111510
  H    0.990607267  -0.518303265   5.877417677
  H   -2.530368579  -2.778274897   2.574304673
  H   -0.761312623  -2.815755532   2.763597540
  H   -3.074961307   1.403306256   2.280743889
  H   -2.490379518   2.976720121   2.877699392
  H   -1.787048789   2.264233908   1.404052787
  C    0.121824960  -0.183237492   5.321197827
  O    0.507485401  -0.178607446   3.935489176
  P   -0.524862844   0.089612323   2.781911270
  O    0.123487571   0.076200682   1.462649605
  O   -1.701060338  -0.960949367   2.942135557
  C   -1.602111220  -2.267781759   2.341517063
  O   -1.219676475   1.429577756   3.227519146
  C   -2.209156778   2.053447171   2.383409389
