19
charge=0 charge_a=0 charge_b=0 selection_a=1-2 selection_b=3-19 scaling=0.8 benchmark_Eint=-4.398 benchmark_unit=kcal/mol group=XH-O
  H   -0.787863116   0.035223446   0.101035769
  I   -1.876331631  -0.028579213  -1.150515721
  H   -1.628814777  -2.184168476   1.050328450
  H   -0.853672903  -0.873207470   5.267218777
  H   -0.301655278   0.813967789   5.417119852
  H    0.846709790  -0.524773355   5.662426019
  H   -2.674266056  -2.784744987   2.359313015
  H   -0.905210100  -2.822225622   2.548605882
  H   -3.218858784   1.396836166   2.065752231
  H   -2.634276995   2.970250031   2.662707734
  H   -1.930946266   2.257763818   1.189061129
  C   -0.022072517  -0.189707582   5.106206169
  O    0.363587924  -0.185077536   3.720497518
  P   -0.668760321   0.083142233   2.566919612
  O   -0.020409906   0.069730592   1.247657947
  O   -1.844957815  -0.967419457   2.727143899
  C   -1.746008697  -2.274251849   2.126525405
  O   -1.363573952   1.423107666   3.012527488
  C   -2.353054255   2.046977081   2.168417731
