19
charge=0 charge_a=0 charge_b=0 selection_a=1-2 selection_b=3-19 scaling=1.0 benchmark_Eint=-7.866 benchmark_unit=kcal/mol group=XH-O
  H   -0.787863116   0.035223446   0.101035769
  I   -1.876331631  -0.028579213  -1.150515721
  H   -1.436951474  -2.175541689   1.336983994
  H   -0.661809600  -0.864580683   5.553874321
  H   -0.109791975   0.822594576   5.703775396
  H    1.038573093  -0.516146568   5.949081563
  H   -2.482402753  -2.776118200   2.645968559
  H   -0.713346797  -2.813598835   2.835261426
  H   -3.026995481   1.405462953   2.352407775
  H   -2.442413692   2.978876818   2.949363278
  H   -1.739082963   2.266390605   1.475716673
  C    0.169790786  -0.181080795   5.392861713
  O    0.555451227  -0.176450749   4.007153062
  P   -0.476897018   0.091769020   2.853575156
  O    0.171453397   0.078357379   1.534313491
  O   -1.653094512  -0.958792670   3.013799443
  C   -1.554145394  -2.265625062   2.413180949
  O   -1.171710649   1.431734453   3.299183032
  C   -2.161190952   2.055603868   2.455073275
