18
charge=0 charge_a=0 charge_b=0 selection_a=1-2 selection_b=3-18 scaling=0.9 benchmark_Eint=-4.581 benchmark_unit=kcal/mol group=XH-O
  H   -0.726733490  -1.763073899   1.698500682
  I   -1.111371368  -3.313841224   1.371626229
  H   -1.074517277   2.309129492   5.345821270
  H   -1.560383846   3.179863183   3.876173543
  H   -2.642540656   1.959393647   4.586803615
  H   -4.288558533   0.049915330   0.937458471
  H    1.685542443   0.205769858   2.603931240
  H   -3.079379702   1.027587244   0.077824286
  H   -2.855319459  -0.731586335   0.239722307
  H    1.658389349  -0.766225402   1.115373349
  O   -0.168772807  -0.114378639   1.726822817
  P   -1.161167323   1.154241954   2.038158735
  O   -0.958311051   1.191101101   3.649498366
  C   -1.602018159   2.222634258   4.400288320
  O   -2.568652821   0.346899939   1.987746461
  C   -3.228486652   0.165746137   0.731215797
  C    1.240472950   0.102868116   1.615460631
  H    1.450700918   0.995945535   1.025075407
