18
charge=0 charge_a=0 charge_b=0 selection_a=1-2 selection_b=3-18 scaling=1.1 benchmark_Eint=-5.135 benchmark_unit=kcal/mol group=XH-O
  H   -0.726733490  -1.763073899   1.698500682
  I   -1.111371368  -3.313841224   1.371626229
  H   -0.950526015   2.675506216   5.352115078
  H   -1.436392584   3.546239907   3.882467351
  H   -2.518549394   2.325770371   4.593097423
  H   -4.164567271   0.416292054   0.943752279
  H    1.809533705   0.572146582   2.610225048
  H   -2.955388440   1.393963968   0.084118094
  H   -2.731328197  -0.365209611   0.246016115
  H    1.782380611  -0.399848678   1.121667157
  O   -0.044781545   0.251998085   1.733116625
  P   -1.037176061   1.520618678   2.044452543
  O   -0.834319789   1.557477825   3.655792174
  C   -1.478026897   2.589010982   4.406582128
  O   -2.444661559   0.713276663   1.994040269
  C   -3.104495390   0.532122861   0.737509605
  C    1.364464212   0.469244840   1.621754439
  H    1.574692180   1.362322259   1.031369215
