18
charge=0 charge_a=0 charge_b=0 selection_a=1-2 selection_b=3-18 scaling=0.85 benchmark_Eint=-3.693 benchmark_unit=kcal/mol group=XH-O
  H   -0.726733490  -1.763073899   1.698500682
  I   -1.111371368  -3.313841224   1.371626229
  H   -1.105515093   2.217535311   5.344247818
  H   -1.591381662   3.088269002   3.874600091
  H   -2.673538472   1.867799466   4.585230163
  H   -4.319556349  -0.041678851   0.935885019
  H    1.654544627   0.114175677   2.602357788
  H   -3.110377518   0.935993063   0.076250834
  H   -2.886317275  -0.823180516   0.238148855
  H    1.627391533  -0.857819583   1.113799897
  O   -0.199770623  -0.205972820   1.725249365
  P   -1.192165139   1.062647773   2.036585283
  O   -0.989308867   1.099506920   3.647924914
  C   -1.633015975   2.131040077   4.398714868
  O   -2.599650637   0.255305758   1.986173009
  C   -3.259484468   0.074151956   0.729642345
  C    1.209475134   0.011273935   1.613887179
  H    1.419703102   0.904351354   1.023501955
