18
charge=0 charge_a=0 charge_b=0 selection_a=1-2 selection_b=3-18 scaling=1.0 benchmark_Eint=-5.273 benchmark_unit=kcal/mol group=XH-O
  H   -0.726733490  -1.763073899   1.698500682
  I   -1.111371368  -3.313841224   1.371626229
  H   -1.012521646   2.492317854   5.348968174
  H   -1.498388215   3.363051545   3.879320447
  H   -2.580545025   2.142582009   4.589950519
  H   -4.226562902   0.233103692   0.940605375
  H    1.747538074   0.388958220   2.607078144
  H   -3.017384071   1.210775606   0.080971190
  H   -2.793323828  -0.548397973   0.242869211
  H    1.720384980  -0.583037040   1.118520253
  O   -0.106777176   0.068809723   1.729969721
  P   -1.099171692   1.337430316   2.041305639
  O   -0.896315420   1.374289463   3.652645270
  C   -1.540022528   2.405822620   4.403435224
  O   -2.506657190   0.530088301   1.990893365
  C   -3.166491021   0.348934499   0.734362701
  C    1.302468581   0.286056478   1.618607535
  H    1.512696549   1.179133897   1.028222311
