5
charge=0 charge_a=0 charge_b=0 selection_a=1-2 selection_b=3-5 scaling=1.25 benchmark_Eint=-2.682 benchmark_unit=kcal/mol group=XH-O
  H   -0.724097678  -0.806459658   0.719600863
  I    0.234343463   0.488298445   0.471807322
  O   -2.072814127  -2.906161354   1.017764299
  H   -2.236339810  -3.312263261   0.162014019
  H   -1.564932836  -3.551895296   1.516814673
