5
charge=0 charge_a=0 charge_b=0 selection_a=1-2 selection_b=3-5 scaling=0.85 benchmark_Eint=-1.898 benchmark_unit=kcal/mol group=XH-O
  H   -0.724097678  -0.806459658   0.719600863
  I    0.234343463   0.488298445   0.471807322
  O   -1.641224863  -2.234256811   0.922352000
  H   -1.804750546  -2.640358718   0.066601720
  H   -1.133343572  -2.879990753   1.421402374
