5
charge=0 charge_a=0 charge_b=0 selection_a=1-2 selection_b=3-5 scaling=1.1 benchmark_Eint=-3.261 benchmark_unit=kcal/mol group=XH-O
  H   -0.724097678  -0.806459658   0.719600863
  I    0.234343463   0.488298445   0.471807322
  O   -1.910968153  -2.654197151   0.981984687
  H   -2.074493836  -3.060299058   0.126234407
  H   -1.403086862  -3.299931093   1.481035061
