5
charge=0 charge_a=0 charge_b=0 selection_a=1-2 selection_b=3-5 scaling=0.9 benchmark_Eint=-2.696 benchmark_unit=kcal/mol group=XH-O
  H   -0.724097678  -0.806459658   0.719600863
  I    0.234343463   0.488298445   0.471807322
  O   -1.695173521  -2.318244879   0.934278537
  H   -1.858699204  -2.724346786   0.078528257
  H   -1.187292230  -2.963978821   1.433328911
