18
charge=0 charge_a=0 charge_b=0 selection_a=1-4 selection_b=5-18 scaling=2.0 benchmark_Eint=-0.254 benchmark_unit=kcal/mol group=XH-P
  C   -0.445073206   3.291327787   0.000000000
  H   -0.876214391   2.317388004   0.000000000
  C    0.055104244   4.378112754   0.000000000
  H    0.495012170   5.343744939   0.000000000
  H   -2.814269472  -4.657338864   0.000000000
  H   -1.585526017  -5.558822349  -0.885880150
  H   -1.585526017  -5.558822349   0.885880150
  H    1.549673177  -1.867561238   0.000000000
  H    1.991159360  -5.511384152  -0.874979008
  H    2.584627471  -2.999973716   0.877120118
  H    2.584627471  -2.999973716  -0.877120118
  H    0.566802121  -6.078934924   0.000000000
  H    1.991159360  -5.511384152   0.874979008
  P   -0.734388501  -3.405348104   0.000000000
  C    0.858973289  -3.925023379   0.000000000
  C    1.942700104  -2.881889306   0.000000000
  C    1.358780488  -5.336777831   0.000000000
  C   -1.766287634  -4.951453740   0.000000000
