18
charge=0 charge_a=0 charge_b=0 selection_a=1-4 selection_b=5-18 scaling=1.5 benchmark_Eint=-0.813 benchmark_unit=kcal/mol group=XH-P
  C   -0.445073206   3.291327787   0.000000000
  H   -0.876214391   2.317388004   0.000000000
  C    0.055104244   4.378112754   0.000000000
  H    0.495012170   5.343744939   0.000000000
  H   -2.849725944  -3.226654837   0.000000000
  H   -1.620982490  -4.128138322  -0.885880150
  H   -1.620982490  -4.128138322   0.885880150
  H    1.514216704  -0.436877211   0.000000000
  H    1.955702888  -4.080700125  -0.874979008
  H    2.549170998  -1.569289689   0.877120118
  H    2.549170998  -1.569289689  -0.877120118
  H    0.531345648  -4.648250897   0.000000000
  H    1.955702888  -4.080700125   0.874979008
  P   -0.769844974  -1.974664077   0.000000000
  C    0.823516816  -2.494339352   0.000000000
  C    1.907243632  -1.451205279   0.000000000
  C    1.323324016  -3.906093804   0.000000000
  C   -1.801744106  -3.520769713   0.000000000
