18
charge=0 charge_a=0 charge_b=0 selection_a=1-4 selection_b=5-18 scaling=0.8 benchmark_Eint=1.174 benchmark_unit=kcal/mol group=XH-P
  C   -0.445073206   3.291327787   0.000000000
  H   -0.876214391   2.317388004   0.000000000
  C    0.055104244   4.378112754   0.000000000
  H    0.495012170   5.343744939   0.000000000
  H   -2.899365006  -1.223697199   0.000000000
  H   -1.670621551  -2.125180684  -0.885880150
  H   -1.670621551  -2.125180684   0.885880150
  H    1.464577643   1.566080427   0.000000000
  H    1.906063826  -2.077742487  -0.874979008
  H    2.499531937   0.433667949   0.877120118
  H    2.499531937   0.433667949  -0.877120118
  H    0.481706587  -2.645293259   0.000000000
  H    1.906063826  -2.077742487   0.874979008
  P   -0.819484035   0.028293561   0.000000000
  C    0.773877755  -0.491381714   0.000000000
  C    1.857604570   0.551752359   0.000000000
  C    1.273684954  -1.903136166   0.000000000
  C   -1.851383168  -1.517812075   0.000000000
