8
charge=0 charge_a=0 charge_b=0 selection_a=1-4 selection_b=5-8 scaling=0.85 benchmark_Eint=-0.121 benchmark_unit=kcal/mol group=XH-P
  C    0.000000265   2.043588826   0.000000000
  H    0.000000179   0.979121358   0.000000000
  C    0.000000282   3.239753475   0.000000000
  H    0.000000279   4.300903661   0.000000000
  P   -0.000000170  -1.514041672   0.000000000
  H   -0.598123823  -2.271598075   1.035981141
  H   -0.598123823  -2.271598075  -1.035981141
  H    1.196247989  -2.271597904   0.000000000
