15
charge=0 charge_a=0 charge_b=0 selection_a=1-4 selection_b=5-15 scaling=1.05 benchmark_Eint=-1.899 benchmark_unit=kcal/mol group=XH-P
  C    0.361849245   3.591379706   0.000000000
  H    1.206463442   2.946297093   0.000000000
  C   -0.599421873   4.302696561   0.000000000
  H   -1.448447871   4.939394767   0.000000000
  H   -1.142274743   0.925512484   0.000000000
  H    2.216010650  -2.289660648   0.000000000
  C   -1.600819367  -1.151122132   0.000000000
  C   -0.727509806  -0.074473470   0.000000000
  P    1.000533597  -0.194464771   0.000000000
  C    1.199779415  -1.915585530   0.000000000
  C    0.164761716  -2.838095483   0.000000000
  C   -1.178248150  -2.476335309   0.000000000
  H    0.409017006  -3.893329274   0.000000000
  H   -1.924863581  -3.258223223   0.000000000
  H   -2.666192378  -0.955546701   0.000000000
