15
charge=0 charge_a=0 charge_b=0 selection_a=1-4 selection_b=5-15 scaling=1.1 benchmark_Eint=-1.762 benchmark_unit=kcal/mol group=XH-P
  C    0.361849245   3.591379706   0.000000000
  H    1.206463442   2.946297093   0.000000000
  C   -0.599421873   4.302696561   0.000000000
  H   -1.448447871   4.939394767   0.000000000
  H   -1.152080926   0.775952396   0.000000000
  H    2.206204467  -2.439220736   0.000000000
  C   -1.610625550  -1.300682220   0.000000000
  C   -0.737315989  -0.224033559   0.000000000
  P    0.990727414  -0.344024860   0.000000000
  C    1.189973232  -2.065145618   0.000000000
  C    0.154955533  -2.987655572   0.000000000
  C   -1.188054333  -2.625895398   0.000000000
  H    0.399210823  -4.042889362   0.000000000
  H   -1.934669764  -3.407783312   0.000000000
  H   -2.675998561  -1.105106790   0.000000000
