15
charge=0 charge_a=0 charge_b=0 selection_a=1-4 selection_b=5-15 scaling=0.8 benchmark_Eint=1.602 benchmark_unit=kcal/mol group=XH-P
  C    0.361849245   3.591379706   0.000000000
  H    1.206463442   2.946297093   0.000000000
  C   -0.599421873   4.302696561   0.000000000
  H   -1.448447871   4.939394767   0.000000000
  H   -1.093243828   1.673312928   0.000000000
  H    2.265041565  -1.541860204   0.000000000
  C   -1.551788452  -0.403321688   0.000000000
  C   -0.678478891   0.673326974   0.000000000
  P    1.049564512   0.553335673   0.000000000
  C    1.248810330  -1.167785086   0.000000000
  C    0.213792631  -2.090295039   0.000000000
  C   -1.129217235  -1.728534865   0.000000000
  H    0.458047921  -3.145528830   0.000000000
  H   -1.875832666  -2.510422779   0.000000000
  H   -2.617161463  -0.207746257   0.000000000
