17
charge=0 charge_a=0 charge_b=0 selection_a=1-4 selection_b=5-17 scaling=1.5 benchmark_Eint=-1.010 benchmark_unit=kcal/mol group=XH-P
  C   -0.000027280   0.000005024   3.137043973
  H   -0.000003183  -0.000003080   2.068644266
  C   -0.000050636   0.000017172   4.333928320
  H   -0.000071835   0.000028406   5.394999214
  H    1.862630124   1.465908038  -2.721994795
  H    0.338134288   2.345971229  -2.722060233
  H    0.760166092   1.316506220  -4.103663049
  H    1.862619886  -1.465950044  -2.721972651
  H    0.760205592  -1.316486648  -4.103674123
  H    0.338106120  -2.345982574  -2.722114736
  H   -2.200694384   0.880114666  -2.721829413
  H   -2.200658670  -0.880174855  -2.721906674
  H   -1.520160966   0.000044423  -4.103529529
  P    0.000096238  -0.000010016  -2.153674138
  C    0.815832460   1.413002783  -3.018096054
  C    0.815833212  -1.413015256  -3.018107924
  C   -1.631526242  -0.000005545  -3.017964596
