17
charge=0 charge_a=0 charge_b=0 selection_a=1-4 selection_b=5-17 scaling=1.25 benchmark_Eint=-1.861 benchmark_unit=kcal/mol group=XH-P
  C   -0.000027280   0.000005024   3.137043973
  H   -0.000003183  -0.000003080   2.068644266
  C   -0.000050636   0.000017172   4.333928320
  H   -0.000071835   0.000028406   5.394999214
  H    1.862613553   1.465909194  -2.018275061
  H    0.338117718   2.345972385  -2.018340499
  H    0.760149521   1.316507376  -3.399943315
  H    1.862603315  -1.465948888  -2.018252917
  H    0.760189022  -1.316485492  -3.399954389
  H    0.338089549  -2.345981418  -2.018395002
  H   -2.200710955   0.880115822  -2.018109679
  H   -2.200675240  -0.880173699  -2.018186940
  H   -1.520177537   0.000045579  -3.399809795
  P    0.000079668  -0.000008860  -1.449954404
  C    0.815815890   1.413003939  -2.314376320
  C    0.815816641  -1.413014100  -2.314388190
  C   -1.631542813  -0.000004389  -2.314244862
