17
charge=0 charge_a=0 charge_b=0 selection_a=1-4 selection_b=5-17 scaling=0.9 benchmark_Eint=-1.837 benchmark_unit=kcal/mol group=XH-P
  C   -0.000027280   0.000005024   3.137043973
  H   -0.000003183  -0.000003080   2.068644266
  C   -0.000050636   0.000017172   4.333928320
  H   -0.000071835   0.000028406   5.394999214
  H    1.862590355   1.465910812  -1.033067433
  H    0.338094520   2.345974003  -1.033132871
  H    0.760126323   1.316508994  -2.414735687
  H    1.862580117  -1.465947270  -1.033045289
  H    0.760165824  -1.316483874  -2.414746761
  H    0.338066351  -2.345979800  -1.033187374
  H   -2.200734153   0.880117440  -1.032902051
  H   -2.200698438  -0.880172081  -1.032979312
  H   -1.520200735   0.000047197  -2.414602167
  P    0.000056470  -0.000007242  -0.464746776
  C    0.815792692   1.413005557  -1.329168692
  C    0.815793443  -1.413012482  -1.329180562
  C   -1.631566011  -0.000002771  -1.329037234
