17
charge=0 charge_a=0 charge_b=0 selection_a=1-4 selection_b=5-17 scaling=1.05 benchmark_Eint=-2.594 benchmark_unit=kcal/mol group=XH-P
  C   -0.000027280   0.000005024   3.137043973
  H   -0.000003183  -0.000003080   2.068644266
  C   -0.000050636   0.000017172   4.333928320
  H   -0.000071835   0.000028406   5.394999214
  H    1.862600297   1.465910119  -1.455299274
  H    0.338104462   2.345973310  -1.455364712
  H    0.760136265   1.316508301  -2.836967528
  H    1.862590059  -1.465947963  -1.455277130
  H    0.760175766  -1.316484567  -2.836978602
  H    0.338076293  -2.345980493  -1.455419215
  H   -2.200724211   0.880116747  -1.455133892
  H   -2.200688496  -0.880172774  -1.455211153
  H   -1.520190793   0.000046504  -2.836834008
  P    0.000066412  -0.000007935  -0.886978617
  C    0.815802634   1.413004864  -1.751400533
  C    0.815803385  -1.413013175  -1.751412403
  C   -1.631556069  -0.000003464  -1.751269075
