17
charge=0 charge_a=0 charge_b=0 selection_a=1-4 selection_b=5-17 scaling=0.8 benchmark_Eint=1.237 benchmark_unit=kcal/mol group=XH-P
  C   -0.000027280   0.000005024   3.137043973
  H   -0.000003183  -0.000003080   2.068644266
  C   -0.000050636   0.000017172   4.333928320
  H   -0.000071835   0.000028406   5.394999214
  H    1.862583727   1.465911275  -0.751579540
  H    0.338087892   2.345974466  -0.751644978
  H    0.760119695   1.316509457  -2.133247794
  H    1.862573489  -1.465946807  -0.751557396
  H    0.760159196  -1.316483411  -2.133258868
  H    0.338059723  -2.345979337  -0.751699481
  H   -2.200740781   0.880117903  -0.751414158
  H   -2.200705066  -0.880171618  -0.751491419
  H   -1.520207363   0.000047660  -2.133114274
  P    0.000049842  -0.000006779  -0.183258883
  C    0.815786064   1.413006020  -1.047680799
  C    0.815786815  -1.413012019  -1.047692669
  C   -1.631572639  -0.000002308  -1.047549341
