20
charge=0 charge_a=0 charge_b=0 selection_a=1-4 selection_b=5-20 scaling=0.95 benchmark_Eint=-2.091 benchmark_unit=kcal/mol group=XH-P
  C    3.411989761   0.148553366  -0.221239956
  H    2.404121719   0.484105002  -0.133983043
  C    4.536900456  -0.247449707  -0.318050681
  H    5.536154115  -0.594264263  -0.404215251
  H   -1.790056232   1.725026710  -2.735709003
  H   -0.069398948   1.410271696  -2.430395156
  H   -1.151774910   0.072914944  -2.880917176
  H    0.340572521  -3.237534864  -0.303921342
  H   -1.938992093   2.137864666   1.742126971
  H    1.418533279  -1.970831476   0.314293630
  H    0.065649068  -2.554139688   1.312624610
  H   -1.463866494   1.217188346   3.185808523
  O   -1.151413079   0.244251662   1.426016818
  P   -0.299180327   0.193784384   0.043458219
  O   -1.423793803   0.805065864  -0.958054849
  C   -1.080578298   1.009792560  -2.329321700
  O   -0.490181566  -1.380174294  -0.307104123
  C    0.389268058  -2.333312246   0.295978202
  C   -1.191902842   1.466211914   2.163959473
  H   -0.219485543   1.963688896   2.162447846
