20
charge=0 charge_a=0 charge_b=0 selection_a=1-4 selection_b=5-20 scaling=0.9 benchmark_Eint=-1.557 benchmark_unit=kcal/mol group=XH-P
  C    3.411989761   0.148553366  -0.221239956
  H    2.404121719   0.484105002  -0.133983043
  C    4.536900456  -0.247449707  -0.318050681
  H    5.536154115  -0.594264263  -0.404215251
  H   -1.647777177   1.740306743  -2.745048017
  H    0.072880107   1.425551728  -2.439734170
  H   -1.009495855   0.088194976  -2.890256190
  H    0.482851576  -3.222254832  -0.313260356
  H   -1.796713038   2.153144699   1.732787957
  H    1.560812334  -1.955551443   0.304954616
  H    0.207928123  -2.538859655   1.303285596
  H   -1.321587439   1.232468378   3.176469509
  O   -1.009134024   0.259531694   1.416677804
  P   -0.156901272   0.209064417   0.034119205
  O   -1.281514748   0.820345897  -0.967393863
  C   -0.938299243   1.025072592  -2.338660714
  O   -0.347902511  -1.364894262  -0.316443137
  C    0.531547113  -2.318032214   0.286639188
  C   -1.049623787   1.481491947   2.154620459
  H   -0.077206488   1.978968929   2.153108832
