20
charge=0 charge_a=0 charge_b=0 selection_a=1-4 selection_b=5-20 scaling=0.85 benchmark_Eint=-0.491 benchmark_unit=kcal/mol group=XH-P
  C    3.411989761   0.148553366  -0.221239956
  H    2.404121719   0.484105002  -0.133983043
  C    4.536900456  -0.247449707  -0.318050681
  H    5.536154115  -0.594264263  -0.404215251
  H   -1.505498122   1.755586776  -2.754387030
  H    0.215159162   1.440831760  -2.449073183
  H   -0.867216800   0.103475008  -2.899595203
  H    0.625130631  -3.206974800  -0.322599369
  H   -1.654433983   2.168424732   1.723448944
  H    1.703091389  -1.940271410   0.295615603
  H    0.350207178  -2.523579622   1.293946583
  H   -1.179308384   1.247748410   3.167130496
  O   -0.866854969   0.274811726   1.407338791
  P   -0.014622217   0.224344450   0.024780192
  O   -1.139235693   0.835625930  -0.976732876
  C   -0.796020188   1.040352624  -2.347999727
  O   -0.205623456  -1.349614230  -0.325782150
  C    0.673826168  -2.302752182   0.277300175
  C   -0.907344732   1.496771980   2.145281446
  H    0.065072567   1.994248962   2.143769819
