20
charge=0 charge_a=0 charge_b=0 selection_a=1-4 selection_b=5-20 scaling=2.0 benchmark_Eint=-0.214 benchmark_unit=kcal/mol group=XH-P
  C    3.411989761   0.148553366  -0.221239956
  H    2.404121719   0.484105002  -0.133983043
  C    4.536900456  -0.247449707  -0.318050681
  H    5.536154115  -0.594264263  -0.404215251
  H   -4.777916388   1.404146028  -2.539589713
  H   -3.057259104   1.089391013  -2.234275866
  H   -4.139635066  -0.247965739  -2.684797886
  H   -2.647287635  -3.558415547  -0.107802052
  H   -4.926852249   1.816983984   1.938246261
  H   -1.569326877  -2.291712158   0.510412920
  H   -2.922211088  -2.875020370   1.508743900
  H   -4.451726650   0.896307663   3.381927813
  O   -4.139273235  -0.076629021   1.622136108
  P   -3.287040483  -0.127096298   0.239577509
  O   -4.411653959   0.484185182  -0.761935559
  C   -4.068438454   0.688911877  -2.133202410
  O   -3.478041722  -1.701054977  -0.110984833
  C   -2.598592098  -2.654192929   0.492097492
  C   -4.179762998   1.145331232   2.360078763
  H   -3.207345699   1.642808214   2.358567136
