20
charge=0 charge_a=0 charge_b=0 selection_a=1-4 selection_b=5-20 scaling=0.8 benchmark_Eint=1.398 benchmark_unit=kcal/mol group=XH-P
  C    3.411989761   0.148553366  -0.221239956
  H    2.404121719   0.484105002  -0.133983043
  C    4.536900456  -0.247449707  -0.318050681
  H    5.536154115  -0.594264263  -0.404215251
  H   -1.363219067   1.770866808  -2.763726044
  H    0.357438217   1.456111793  -2.458412197
  H   -0.724937745   0.118755041  -2.908934217
  H    0.767409686  -3.191694767  -0.331938383
  H   -1.512154928   2.183704764   1.714109930
  H    1.845370444  -1.924991378   0.286276589
  H    0.492486233  -2.508299590   1.284607569
  H   -1.037029329   1.263028443   3.157791482
  O   -0.724575914   0.290091759   1.397999777
  P    0.127656838   0.239624482   0.015441178
  O   -0.996956638   0.850905962  -0.986071890
  C   -0.653741133   1.055632657  -2.357338741
  O   -0.063344401  -1.334334197  -0.335121164
  C    0.816105223  -2.287472149   0.267961161
  C   -0.765065677   1.512052012   2.135942432
  H    0.207351622   2.009528994   2.134430805
