17
charge=0 charge_a=0 charge_b=0 selection_a=1-4 selection_b=5-17 scaling=1.1 benchmark_Eint=-2.990 benchmark_unit=kcal/mol group=XH-P
  N    0.293708948   3.065122439   0.000000000
  H    0.918460321   2.265199024   0.000000000
  H    0.519131365   3.622803887  -0.814146044
  H    0.519131365   3.622803887   0.814146044
  H    1.019062802  -2.837478727   0.880350997
  H    1.019062802  -2.837478727  -0.880350997
  H   -0.511571067  -3.004603773   0.000000000
  H   -0.353622400  -0.675842798   2.346889984
  H   -1.737884201  -1.081469355   1.314488545
  H   -1.170100529   0.597001715   1.434629011
  H   -0.353622400  -0.675842798  -2.346889984
  H   -1.170100529   0.597001715  -1.434629011
  H   -1.737884201  -1.081469355  -1.314488545
  P    0.314965318  -0.673652775   0.000000000
  C    0.464142942  -2.515589041   0.000000000
  C   -0.856104419  -0.445169879   1.408288849
  C   -0.856104419  -0.445169879  -1.408288849
