17
charge=0 charge_a=0 charge_b=0 selection_a=1-4 selection_b=5-17 scaling=1.25 benchmark_Eint=-2.183 benchmark_unit=kcal/mol group=XH-P
  N    0.293708948   3.065122439   0.000000000
  H    0.918460321   2.265199024   0.000000000
  H    0.519131365   3.622803887  -0.814146044
  H    0.519131365   3.622803887   0.814146044
  H    0.936768029  -3.238231246   0.880350997
  H    0.936768029  -3.238231246  -0.880350997
  H   -0.593865840  -3.405356292   0.000000000
  H   -0.435917173  -1.076595316   2.346889984
  H   -1.820178974  -1.482221874   1.314488545
  H   -1.252395302   0.196249196   1.434629011
  H   -0.435917173  -1.076595316  -2.346889984
  H   -1.252395302   0.196249196  -1.434629011
  H   -1.820178974  -1.482221874  -1.314488545
  P    0.232670545  -1.074405294   0.000000000
  C    0.381848169  -2.916341560   0.000000000
  C   -0.938399192  -0.845922398   1.408288849
  C   -0.938399192  -0.845922398  -1.408288849
