17
charge=0 charge_a=0 charge_b=0 selection_a=1-4 selection_b=5-17 scaling=1.5 benchmark_Eint=-1.133 benchmark_unit=kcal/mol group=XH-P
  N    0.293708948   3.065122439   0.000000000
  H    0.918460321   2.265199024   0.000000000
  H    0.519131365   3.622803887  -0.814146044
  H    0.519131365   3.622803887   0.814146044
  H    0.799610074  -3.906152109   0.880350997
  H    0.799610074  -3.906152109  -0.880350997
  H   -0.731023796  -4.073277155   0.000000000
  H   -0.573075128  -1.744516180   2.346889984
  H   -1.957336930  -2.150142737   1.314488545
  H   -1.389553258  -0.471671667   1.434629011
  H   -0.573075128  -1.744516180  -2.346889984
  H   -1.389553258  -0.471671667  -1.434629011
  H   -1.957336930  -2.150142737  -1.314488545
  P    0.095512590  -1.742326157   0.000000000
  C    0.244690214  -3.584262423   0.000000000
  C   -1.075557148  -1.513843261   1.408288849
  C   -1.075557148  -1.513843261  -1.408288849
