20
charge=0 charge_a=0 charge_b=0 selection_a=1-4 selection_b=5-20 scaling=0.85 benchmark_Eint=-0.911 benchmark_unit=kcal/mol group=XH-P
  N   -1.301351763   2.349132670  -2.378570685
  H   -1.353211443   1.840444713  -1.502279560
  H   -1.362255491   3.336077953  -2.162376317
  H   -2.122945559   2.110083083  -2.919275914
  H    1.101049822   1.950510457   2.707941273
  H   -0.528442563   2.143525897   2.029074703
  H   -0.150328528   0.735350199   3.046871692
  H   -2.384425234  -2.518328694   0.887351342
  H    2.145722824   0.901497844  -1.529564524
  H   -2.723244107  -1.216495656  -0.271502235
  H   -1.544140174  -2.484340743  -0.678042477
  H    1.627649818  -0.225657332  -2.799239528
  O    0.625829577  -0.425397688  -1.039362315
  P   -0.387340196   0.238569835   0.036305748
  O    0.700888742   0.697845888   1.155150477
  C    0.245604022   1.420792954   2.297867953
  O   -0.906484197  -1.126498627   0.755964373
  C   -1.947925553  -1.873889799   0.129309088
  C    1.286375468   0.418468711  -1.993770776
  H    0.608814327   1.173951425  -2.393234941
