20
charge=0 charge_a=0 charge_b=0 selection_a=1-4 selection_b=5-20 scaling=0.8 benchmark_Eint=1.208 benchmark_unit=kcal/mol group=XH-P
  N   -1.301351763   2.349132670  -2.378570685
  H   -1.353211443   1.840444713  -1.502279560
  H   -1.362255491   3.336077953  -2.162376317
  H   -2.122945559   2.110083083  -2.919275914
  H    1.006372652   2.041929233   2.657774840
  H   -0.623119733   2.234944673   1.978908270
  H   -0.245005698   0.826768975   2.996705259
  H   -2.479102404  -2.426909918   0.837184909
  H    2.051045654   0.992916620  -1.579730957
  H   -2.817921277  -1.125076880  -0.321668668
  H   -1.638817344  -2.392921967  -0.728208910
  H    1.532972648  -0.134238556  -2.849405961
  O    0.531152407  -0.333978912  -1.089528748
  P   -0.482017366   0.329988611  -0.013860685
  O    0.606211572   0.789264664   1.104984044
  C    0.150926852   1.512211730   2.247701520
  O   -1.001161367  -1.035079851   0.705797940
  C   -2.042602723  -1.782471023   0.079142655
  C    1.191698298   0.509887487  -2.043937209
  H    0.514137157   1.265370201  -2.443401374
