20
charge=0 charge_a=0 charge_b=0 selection_a=1-7 selection_b=8-20 scaling=0.95 benchmark_Eint=-3.672 benchmark_unit=kcal/mol group=XH-P
  N   -1.686058393   1.389510189   1.376264904
  H   -1.150769958   0.555809556   1.588267201
  H   -2.577367707   1.303856695   1.846025391
  C   -0.969635346   2.580595300   1.830814560
  H   -1.531681359   3.471894053   1.553108852
  H   -0.780533169   2.621860357   2.909689900
  H   -0.006638430   2.631857131   1.324202457
  H   -1.888026621  -0.662124493  -0.734035698
  H   -1.308637271  -2.320473518  -0.550982922
  H   -0.893176980  -1.397346541  -2.007603896
  H   -0.068706330   1.535270810  -0.858521022
  H    0.791393461   0.618650546  -2.113080550
  H    1.677622936   1.297096881  -0.734601366
  H    1.596858636  -2.813230639  -0.373092678
  H    2.718932526  -1.458562470  -0.446515514
  H    1.696188530  -1.831248971  -1.846758834
  P    0.437578647  -0.690819489  -0.047889498
  C   -1.052164551  -1.331874137  -0.929812770
  C    0.742005106   0.832974212  -1.044068324
  C    1.732919086  -1.802681569  -0.756334906
