20
charge=0 charge_a=0 charge_b=0 selection_a=1-7 selection_b=8-20 scaling=1.25 benchmark_Eint=-2.498 benchmark_unit=kcal/mol group=XH-P
  N   -1.686058393   1.389510189   1.376264904
  H   -1.150769958   0.555809556   1.588267201
  H   -2.577367707   1.303856695   1.846025391
  C   -0.969635346   2.580595300   1.830814560
  H   -1.531681359   3.471894053   1.553108852
  H   -0.780533169   2.621860357   2.909689900
  H   -0.006638430   2.631857131   1.324202457
  H   -1.386442851  -1.055796823  -1.250716760
  H   -0.807053501  -2.714145848  -1.067663984
  H   -0.391593210  -1.791018871  -2.524284960
  H    0.432877440   1.141598480  -1.375202086
  H    1.292977231   0.224978216  -2.629761612
  H    2.179206706   0.903424551  -1.251282428
  H    2.098442406  -3.206902969  -0.889773742
  H    3.220516296  -1.852234800  -0.963196576
  H    2.197772300  -2.224921301  -2.363439896
  P    0.939162417  -1.084491819  -0.564570562
  C   -0.550580781  -1.725546467  -1.446493832
  C    1.243588876   0.439301882  -1.560749386
  C    2.234502856  -2.196353899  -1.273015968
