20
charge=0 charge_a=0 charge_b=0 selection_a=1-7 selection_b=8-20 scaling=0.8 benchmark_Eint=0.609 benchmark_unit=kcal/mol group=XH-P
  N   -1.686058393   1.389510189   1.376264904
  H   -1.150769958   0.555809556   1.588267201
  H   -2.577367707   1.303856695   1.846025391
  C   -0.969635346   2.580595300   1.830814560
  H   -1.531681359   3.471894053   1.553108852
  H   -0.780533169   2.621860357   2.909689900
  H   -0.006638430   2.631857131   1.324202457
  H   -2.138818506  -0.465288328  -0.475695166
  H   -1.559429156  -2.123637353  -0.292642390
  H   -1.143968865  -1.200510376  -1.749263365
  H   -0.319498215   1.732106975  -0.600180491
  H    0.540601576   0.815486711  -1.854740018
  H    1.426831051   1.493933046  -0.476260834
  H    1.346066751  -2.616394474  -0.114752147
  H    2.468140641  -1.261726305  -0.188174982
  H    1.445396645  -1.634412806  -1.588418302
  P    0.186786762  -0.493983324   0.210451033
  C   -1.302956436  -1.135037972  -0.671472238
  C    0.491213221   1.029810377  -0.785727792
  C    1.482127201  -1.605845404  -0.497994374
