26
charge=0 charge_a=0 charge_b=0 selection_a=1-12 selection_b=13-26 scaling=0.9 benchmark_Eint=-3.940 benchmark_unit=kcal/mol group=XH-P
  C   -2.389240398  -1.455799537   0.314567582
  H   -3.257815680  -1.548703992   0.963603557
  H   -1.484740608  -1.563800608   0.909544476
  H   -2.439120086  -2.262219815  -0.415079427
  C   -2.472390664  -0.131660691  -0.416794831
  O   -3.431516940   0.170611485  -1.107422000
  N   -1.411302671   0.697033192  -0.248985803
  H   -0.613429116   0.373193799   0.271819674
  C   -1.343780956   1.983862933  -0.909348666
  H   -2.240948819   2.564350677  -0.703566440
  H   -0.475995010   2.523137008  -0.538612869
  H   -1.260101739   1.876476396  -1.992141832
  H    2.208867100   1.586873451   2.670180131
  H    3.170916230   1.542258356   1.193669794
  H    1.516692187   2.172756880   1.159999536
  H    0.700615825  -2.499894988  -0.120288118
  H    2.651773538   0.107581583  -2.027289756
  H    0.094768454  -1.633346007  -1.538726935
  H    1.734628277  -2.257315754  -1.533567052
  H    2.187150760   1.461713995  -0.995272967
  H    1.006740827   0.701278831  -2.067592520
  P    1.524239424  -0.307183443   1.314281775
  C    1.466163367  -0.486431587  -0.354760247
  C    0.969936368  -1.795099727  -0.904399103
  C    1.852307898   0.512472839  -1.401034672
  C    2.166873886   1.415328842   1.596265688
