26
charge=0 charge_a=0 charge_b=0 selection_a=1-12 selection_b=13-26 scaling=1.0 benchmark_Eint=-5.035 benchmark_unit=kcal/mol group=XH-P
  C   -2.389240398  -1.455799537   0.314567582
  H   -3.257815680  -1.548703992   0.963603557
  H   -1.484740608  -1.563800608   0.909544476
  H   -2.439120086  -2.262219815  -0.415079427
  C   -2.472390664  -0.131660691  -0.416794831
  O   -3.431516940   0.170611485  -1.107422000
  N   -1.411302671   0.697033192  -0.248985803
  H   -0.613429116   0.373193799   0.271819674
  C   -1.343780956   1.983862933  -0.909348666
  H   -2.240948819   2.564350677  -0.703566440
  H   -0.475995010   2.523137008  -0.538612869
  H   -1.260101739   1.876476396  -1.992141832
  H    2.446385827   1.511275980   2.786009253
  H    3.408434957   1.466660885   1.309498916
  H    1.754210914   2.097159409   1.275828658
  H    0.938134552  -2.575492459  -0.004458996
  H    2.889292265   0.031984112  -1.911460634
  H    0.332287181  -1.708943478  -1.422897813
  H    1.972147004  -2.332913225  -1.417737930
  H    2.424669487   1.386116524  -0.879443845
  H    1.244259554   0.625681360  -1.951763398
  P    1.761758151  -0.382780914   1.430110897
  C    1.703682094  -0.562029058  -0.238931125
  C    1.207455095  -1.870697198  -0.788569981
  C    2.089826625   0.436875368  -1.285205550
  C    2.404392613   1.339731371   1.712094810
