18
charge=0 charge_a=0 charge_b=0 selection_a=1-12 selection_b=13-18 scaling=0.95 benchmark_Eint=-3.961 benchmark_unit=kcal/mol group=XH-P
  C   -0.923900271  -0.683463769   1.912556299
  H   -1.654366686  -0.359632191   2.651932556
  H   -0.125514379   0.053351195   1.854149637
  H   -0.516544607  -1.633704938   2.252732868
  C   -1.637073594  -0.906073718   0.594144412
  O   -2.523408886  -1.734836936   0.469088686
  N   -1.225375052  -0.126948290  -0.437259090
  H   -0.477282961   0.528778270  -0.292968816
  C   -1.822300826  -0.233129804  -1.753598991
  H   -2.868124341   0.073326862  -1.739368879
  H   -1.272609757   0.407280862  -2.438249975
  H   -1.783494486  -1.260843077  -2.112092436
  H    2.934156505  -1.336259272  -0.812497021
  H    1.194928168  -1.500402686  -0.538890676
  H    2.297534205  -1.387303969   0.834817444
  P    1.824940448   1.958808093  -0.194997357
  C    1.965481447   0.424075241  -0.185680592
  C    2.105880120  -1.021821053  -0.175439269
