16
charge=0 charge_a=0 charge_b=0 selection_a=1-12 selection_b=13-16 scaling=0.85 benchmark_Eint=-1.195 benchmark_unit=kcal/mol group=XH-P
  C   -1.823125195   0.979757056   0.000000000
  H   -2.353560343   1.343969140   0.877924905
  H   -1.835168295  -0.108656784   0.000000000
  H   -2.353560343   1.343969140  -0.877924905
  C   -0.425188145   1.565000160   0.000000000
  O   -0.229406479   2.769295027   0.000000000
  N    0.589673228   0.666276627   0.000000000
  H    0.381584062  -0.318141264   0.000000000
  C    1.974402115   1.092723546   0.000000000
  H    2.197778276   1.695374608   0.879839156
  H    2.610964157   0.211596863   0.000000000
  H    2.197778276   1.695374608  -0.879839156
  P    0.012962597  -2.571655768   0.000000000
  H   -0.704642289  -3.209253577  -1.039172711
  H    1.068598672  -3.513627447   0.000000000
  H   -0.704642289  -3.209253577   1.039172711
