28
charge=0 charge_a=0 charge_b=0 selection_a=1-12 selection_b=13-28 scaling=0.85 benchmark_Eint=-2.610 benchmark_unit=kcal/mol group=XH-P
  C   -1.974610795  -1.457891036   1.449517142
  H   -2.535785920  -1.060771908   2.294272576
  H   -0.979321902  -1.019656534   1.447136528
  H   -1.893026057  -2.533704362   1.589023202
  C   -2.758666076  -1.191849986   0.179725630
  O   -3.841899726  -1.714172127  -0.028394428
  N   -2.184661571  -0.337469043  -0.702126208
  H   -1.290262583   0.078816222  -0.491173163
  C   -2.840809639   0.014441313  -1.944917415
  H   -3.075906365  -0.877359792  -2.524193363
  H   -3.774588714   0.546778430  -1.763219661
  H   -2.174320814   0.650872374  -2.521635401
  H    0.737912616   2.345247313   2.903476029
  H   -0.605816156   1.578315067   2.032946270
  H    0.546890153   0.579423528   2.948956532
  H    1.089353354  -2.963887042   0.259278899
  H    2.339281365   2.906140087  -1.226694569
  H    0.056012104  -2.030287541  -0.840869218
  H    1.797174660  -2.184541207  -1.172859800
  H    2.685090302   1.951352549  -2.685282202
  O    2.053651241   0.855042273  -1.091646155
  P    0.833099719   0.511815365  -0.082360441
  O    1.300362364   1.394750611   1.194375509
  C    0.438671546   1.471207350   2.332728425
  O    1.323673828  -0.948304088   0.424960345
  C    1.047454499  -2.093277508  -0.388407848
  C    2.010150907   2.070434964  -1.842854354
  H    1.002948806   2.270962171  -2.214402237
