28
charge=0 charge_a=0 charge_b=0 selection_a=1-12 selection_b=13-28 scaling=0.8 benchmark_Eint=0.147 benchmark_unit=kcal/mol group=XH-P
  C   -1.974610795  -1.457891036   1.449517142
  H   -2.535785920  -1.060771908   2.294272576
  H   -0.979321902  -1.019656534   1.447136528
  H   -1.893026057  -2.533704362   1.589023202
  C   -2.758666076  -1.191849986   0.179725630
  O   -3.841899726  -1.714172127  -0.028394428
  N   -2.184661571  -0.337469043  -0.702126208
  H   -1.290262583   0.078816222  -0.491173163
  C   -2.840809639   0.014441313  -1.944917415
  H   -3.075906365  -0.877359792  -2.524193363
  H   -3.774588714   0.546778430  -1.763219661
  H   -2.174320814   0.650872374  -2.521635401
  H    0.613008952   2.319776776   2.879428221
  H   -0.730719820   1.552844530   2.008898462
  H    0.421986489   0.553952991   2.924908724
  H    0.964449690  -2.989357579   0.235231091
  H    2.214377701   2.880669550  -1.250742377
  H   -0.068891560  -2.055758078  -0.864917026
  H    1.672270996  -2.210011744  -1.196907608
  H    2.560186638   1.925882012  -2.709330010
  O    1.928747577   0.829571736  -1.115693963
  P    0.708196055   0.486344828  -0.106408249
  O    1.175458700   1.369280074   1.170327701
  C    0.313767882   1.445736813   2.308680617
  O    1.198770164  -0.973774625   0.400912537
  C    0.922550835  -2.118748045  -0.412455656
  C    1.885247243   2.044964427  -1.866902162
  H    0.878045142   2.245491634  -2.238450045
