28
charge=0 charge_a=0 charge_b=0 selection_a=1-12 selection_b=13-28 scaling=0.9 benchmark_Eint=-4.186 benchmark_unit=kcal/mol group=XH-P
  C   -1.974610795  -1.457891036   1.449517142
  H   -2.535785920  -1.060771908   2.294272576
  H   -0.979321902  -1.019656534   1.447136528
  H   -1.893026057  -2.533704362   1.589023202
  C   -2.758666076  -1.191849986   0.179725630
  O   -3.841899726  -1.714172127  -0.028394428
  N   -2.184661571  -0.337469043  -0.702126208
  H   -1.290262583   0.078816222  -0.491173163
  C   -2.840809639   0.014441313  -1.944917415
  H   -3.075906365  -0.877359792  -2.524193363
  H   -3.774588714   0.546778430  -1.763219661
  H   -2.174320814   0.650872374  -2.521635401
  H    0.862816281   2.370717851   2.927523836
  H   -0.480912491   1.603785605   2.056994077
  H    0.671793818   0.604894066   2.973004339
  H    1.214257019  -2.938416504   0.283326706
  H    2.464185030   2.931610625  -1.202646762
  H    0.180915769  -2.004817003  -0.816821411
  H    1.922078325  -2.159070669  -1.148811993
  H    2.809993967   1.976823087  -2.661234395
  O    2.178554906   0.880512811  -1.067598348
  P    0.958003384   0.537285903  -0.058312634
  O    1.425266029   1.420221149   1.218423316
  C    0.563575211   1.496677888   2.356776232
  O    1.448577493  -0.922833550   0.449008152
  C    1.172358164  -2.067806970  -0.364360041
  C    2.135054572   2.095905502  -1.818806547
  H    1.127852471   2.296432709  -2.190354430
