12
charge=0 charge_a=0 charge_b=0 selection_a=1-6 selection_b=7-12 scaling=2.0 benchmark_Eint=-0.321 benchmark_unit=kcal/mol group=XH-P
  O   -1.121527761   1.783086118  -0.311869827
  H   -0.268081128   1.346485238  -0.222631995
  C   -1.800164383   1.203441979  -1.415625590
  H   -2.777600875   1.676680365  -1.474937109
  H   -1.272929749   1.377157168  -2.357630495
  H   -1.941017652   0.125968981  -1.289509094
  H   -0.173167388  -4.270355646   2.633404439
  H   -0.307997378  -2.504461119   2.611591859
  H    0.728490354  -3.300491293   3.802968032
  P    2.674889572  -3.169291607   0.855895533
  C    1.493362143  -3.256239764   1.842185256
  C    0.378272945  -3.338454329   2.770012536
