12
charge=0 charge_a=0 charge_b=0 selection_a=1-6 selection_b=7-12 scaling=1.0 benchmark_Eint=-3.886 benchmark_unit=kcal/mol group=XH-P
  O   -1.121527761   1.783086118  -0.311869827
  H   -0.268081128   1.346485238  -0.222631995
  C   -1.800164383   1.203441979  -1.415625590
  H   -2.777600875   1.676680365  -1.474937109
  H   -1.272929749   1.377157168  -2.357630495
  H   -1.941017652   0.125968981  -1.289509094
  H   -1.202715576  -1.857619391   1.536575062
  H   -1.337545566  -0.091724864   1.514762482
  H   -0.301057834  -0.887755038   2.706138655
  P    1.645341384  -0.756555352  -0.240933844
  C    0.463813955  -0.843503509   0.745355879
  C   -0.651275243  -0.925718074   1.673183159
