17
charge=0 charge_a=0 charge_b=0 selection_a=1-6 selection_b=7-17 scaling=0.8 benchmark_Eint=0.572 benchmark_unit=kcal/mol group=XH-P
  O   -0.271575218   1.110211395  -3.064200559
  H   -0.986332430   1.012086923  -2.427321374
  C    0.429077994   2.310457451  -2.771994410
  H    1.262026818   2.370021875  -3.468780611
  H   -0.199707045   3.194721445  -2.906665004
  H    0.826346228   2.313877755  -1.753124728
  H    1.001587407  -0.391318285  -1.741174838
  H   -1.990006424   0.351429200   1.739661330
  C    1.390855587  -1.118983022   0.224340139
  C    0.632934330  -0.451694802  -0.725174429
  P   -0.891581420   0.309015304  -0.419858358
  C   -1.089651038  -0.021934948   1.268150474
  C   -0.185294901  -0.725460838   2.049242696
  C    1.002952655  -1.252087758   1.553734926
  H   -0.411332374  -0.874811821   3.097872471
  H    1.652687542  -1.788253803   2.231299838
  H    2.332069899  -1.560632565  -0.079189920
