17
charge=0 charge_a=0 charge_b=0 selection_a=1-6 selection_b=7-17 scaling=1.1 benchmark_Eint=-3.237 benchmark_unit=kcal/mol group=XH-P
  O   -0.271575218   1.110211395  -3.064200559
  H   -0.986332430   1.012086923  -2.427321374
  C    0.429077994   2.310457451  -2.771994410
  H    1.262026818   2.370021875  -3.468780611
  H   -0.199707045   3.194721445  -2.906665004
  H    0.826346228   2.313877755  -1.753124728
  H    1.037119035  -0.654970142  -0.988376207
  H   -1.954474796   0.087777343   2.492459961
  C    1.426387215  -1.382634879   0.977138770
  C    0.668465958  -0.715346659   0.027624202
  P   -0.856049792   0.045363447   0.332940273
  C   -1.054119410  -0.285586805   2.020949105
  C   -0.149763273  -0.989112695   2.802041327
  C    1.038484283  -1.515739615   2.306533557
  H   -0.375800746  -1.138463678   3.850671102
  H    1.688219170  -2.051905660   2.984098469
  H    2.367601527  -1.824284422   0.673608711
