17
charge=0 charge_a=0 charge_b=0 selection_a=1-6 selection_b=7-17 scaling=0.9 benchmark_Eint=-2.840 benchmark_unit=kcal/mol group=XH-P
  O   -0.271575218   1.110211395  -3.064200559
  H   -0.986332430   1.012086923  -2.427321374
  C    0.429077994   2.310457451  -2.771994410
  H    1.262026818   2.370021875  -3.468780611
  H   -0.199707045   3.194721445  -2.906665004
  H    0.826346228   2.313877755  -1.753124728
  H    1.013431283  -0.479202238  -1.490241961
  H   -1.978162548   0.263545247   1.990594207
  C    1.402699463  -1.206866975   0.475273016
  C    0.644778206  -0.539578755  -0.474241552
  P   -0.879737544   0.221131351  -0.168925481
  C   -1.077807162  -0.109818901   1.519083351
  C   -0.173451025  -0.813344791   2.300175573
  C    1.014796531  -1.339971711   1.804667803
  H   -0.399488498  -0.962695774   3.348805348
  H    1.664531418  -1.876137756   2.482232715
  H    2.343913775  -1.648516518   0.171742957
