22
charge=0 charge_a=0 charge_b=0 selection_a=1-6 selection_b=7-22 scaling=1.1 benchmark_Eint=-4.908 benchmark_unit=kcal/mol group=XH-P
  O   -0.981736181   1.639870090  -2.277965321
  H   -1.090968503   1.085220534  -1.492545642
  C   -0.113564788   0.966151424  -3.171896734
  H    0.062272914   1.629408329  -4.015972949
  H    0.851643291   0.731845273  -2.711354864
  H   -0.551691003   0.037455722  -3.550860792
  H    0.461842012  -3.598543090  -0.507631818
  H   -0.092036292  -2.185523433  -1.429256451
  H    1.616016013  -2.322664582  -0.952719414
  H    2.673883523   1.848777675   0.126720157
  H   -1.756453159  -1.530537961   2.833647694
  H    0.957580465   2.130638873  -0.238535997
  H    1.530174173   2.160954205   1.448809236
  H   -1.788803965   0.059881706   3.626060989
  O   -0.355579676  -0.138717437   2.195278728
  P   -0.040209731  -0.315696313   0.615754157
  O    0.306977472  -1.900645146   0.602348061
  C    0.590363248  -2.529428273  -0.649163454
  O    1.467847213   0.274311256   0.582867833
  C    1.657067504   1.691387546   0.474284529
  C   -1.662781641  -0.456313084   2.678820648
  H   -2.434693712  -0.123160420   1.982047536
