22
charge=0 charge_a=0 charge_b=0 selection_a=1-6 selection_b=7-22 scaling=1.05 benchmark_Eint=-5.166 benchmark_unit=kcal/mol group=XH-P
  O   -0.981736181   1.639870090  -2.277965321
  H   -1.090968503   1.085220534  -1.492545642
  C   -0.113564788   0.966151424  -3.171896734
  H    0.062272914   1.629408329  -4.015972949
  H    0.851643291   0.731845273  -2.711354864
  H   -0.551691003   0.037455722  -3.550860792
  H    0.414080249  -3.534865052  -0.603463627
  H   -0.139798055  -2.121845394  -1.525088260
  H    1.568254250  -2.258986544  -1.048551223
  H    2.626121760   1.912455714   0.030888348
  H   -1.804214922  -1.466859922   2.737815885
  H    0.909818702   2.194316912  -0.334367806
  H    1.482412410   2.224632244   1.352977427
  H   -1.836565728   0.123559744   3.530229180
  O   -0.403341439  -0.075039399   2.099446919
  P   -0.087971494  -0.252018274   0.519922348
  O    0.259215709  -1.836967108   0.506516252
  C    0.542601485  -2.465750234  -0.744995263
  O    1.420085450   0.337989294   0.487036024
  C    1.609305741   1.755065584   0.378452720
  C   -1.710543404  -0.392635046   2.582988839
  H   -2.482455475  -0.059482382   1.886215727
