22
charge=0 charge_a=0 charge_b=0 selection_a=1-6 selection_b=7-22 scaling=0.95 benchmark_Eint=-4.976 benchmark_unit=kcal/mol group=XH-P
  O   -0.981736181   1.639870090  -2.277965321
  H   -1.090968503   1.085220534  -1.492545642
  C   -0.113564788   0.966151424  -3.171896734
  H    0.062272914   1.629408329  -4.015972949
  H    0.851643291   0.731845273  -2.711354864
  H   -0.551691003   0.037455722  -3.550860792
  H    0.318556725  -3.407508974  -0.795127245
  H   -0.235321579  -1.994489318  -1.716751878
  H    1.472730726  -2.131630466  -1.240214841
  H    2.530598236   2.039811790  -0.160775270
  H   -1.899738446  -1.339503846   2.546152267
  H    0.814295178   2.321672988  -0.526031424
  H    1.386888886   2.351988320   1.161313809
  H   -1.932089252   0.250915822   3.338565562
  O   -0.498864963   0.052316679   1.907783301
  P   -0.183495018  -0.124662198   0.328258730
  O    0.163692185  -1.709611030   0.314852634
  C    0.447077961  -2.338394158  -0.936658881
  O    1.324561926   0.465345372   0.295372406
  C    1.513782217   1.882421662   0.186789102
  C   -1.806066928  -0.265278968   2.391325221
  H   -2.577978999   0.067873696   1.694552109
