22
charge=0 charge_a=0 charge_b=0 selection_a=1-6 selection_b=7-22 scaling=1.25 benchmark_Eint=-3.717 benchmark_unit=kcal/mol group=XH-P
  O   -0.981736181   1.639870090  -2.277965321
  H   -1.090968503   1.085220534  -1.492545642
  C   -0.113564788   0.966151424  -3.171896734
  H    0.062272914   1.629408329  -4.015972949
  H    0.851643291   0.731845273  -2.711354864
  H   -0.551691003   0.037455722  -3.550860792
  H    0.605127299  -3.789577206  -0.220136391
  H    0.051248995  -2.376557548  -1.141761024
  H    1.759301300  -2.513698698  -0.665223987
  H    2.817168810   1.657743560   0.414215584
  H   -1.613167872  -1.721572076   3.121143121
  H    1.100865752   1.939604758   0.048959430
  H    1.673459460   1.969920090   1.736304663
  H   -1.645518678  -0.131152410   3.913556416
  O   -0.212294389  -0.329751552   2.482774155
  P    0.103075556  -0.506730428   0.903249584
  O    0.450262759  -2.091679262   0.889843488
  C    0.733648535  -2.720462388  -0.361668027
  O    1.611132500   0.083277140   0.870363260
  C    1.800352791   1.500353430   0.761779956
  C   -1.519496354  -0.647347200   2.966316075
  H   -2.291408425  -0.314194536   2.269542963
