22
charge=0 charge_a=0 charge_b=0 selection_a=1-6 selection_b=7-22 scaling=2.0 benchmark_Eint=-0.550 benchmark_unit=kcal/mol group=XH-P
  O   -0.981736181   1.639870090  -2.277965321
  H   -1.090968503   1.085220534  -1.492545642
  C   -0.113564788   0.966151424  -3.171896734
  H    0.062272914   1.629408329  -4.015972949
  H    0.851643291   0.731845273  -2.711354864
  H   -0.551691003   0.037455722  -3.550860792
  H    1.321553734  -4.744747783   1.217340745
  H    0.767675430  -3.331728126   0.295716112
  H    2.475727735  -3.468869275   0.772253149
  H    3.533595245   0.702572982   1.851692720
  H   -0.896741437  -2.676742654   4.558620257
  H    1.817292187   0.984434180   1.486436566
  H    2.389885895   1.014749512   3.173781799
  H   -0.929092243  -1.086322987   5.351033552
  O    0.504132046  -1.284922130   3.920251291
  P    0.819501991  -1.461901006   2.340726720
  O    1.166689194  -3.046849839   2.327320624
  C    1.450074970  -3.675632966   1.075809109
  O    2.327558935  -0.871893437   2.307840396
  C    2.516779226   0.545182853   2.199257092
  C   -0.803069919  -1.602517777   4.403793211
  H   -1.574981990  -1.269365113   3.707020099
