22
charge=0 charge_a=0 charge_b=0 selection_a=1-6 selection_b=7-22 scaling=0.9 benchmark_Eint=-4.207 benchmark_unit=kcal/mol group=XH-P
  O   -0.981736181   1.639870090  -2.277965321
  H   -1.090968503   1.085220534  -1.492545642
  C   -0.113564788   0.966151424  -3.171896734
  H    0.062272914   1.629408329  -4.015972949
  H    0.851643291   0.731845273  -2.711354864
  H   -0.551691003   0.037455722  -3.550860792
  H    0.270794962  -3.343830936  -0.890959054
  H   -0.283083342  -1.930811279  -1.812583687
  H    1.424968963  -2.067952428  -1.336046650
  H    2.482836473   2.103489829  -0.256607079
  H   -1.947500209  -1.275825807   2.450320458
  H    0.766533415   2.385351027  -0.621863233
  H    1.339127123   2.415666359   1.065482000
  H   -1.979851015   0.314593860   3.242733753
  O   -0.546626726   0.115994717   1.811951492
  P   -0.231256781  -0.060984159   0.232426921
  O    0.115930422  -1.645932992   0.219020825
  C    0.399316198  -2.274716119  -1.032490690
  O    1.276800163   0.529023410   0.199540597
  C    1.466020454   1.946099700   0.090957293
  C   -1.853828691  -0.201600930   2.295493412
  H   -2.625740762   0.131551734   1.598720300
