10
charge=0 charge_a=0 charge_b=0 selection_a=1-6 selection_b=7-10 scaling=2.0 benchmark_Eint=-0.142 benchmark_unit=kcal/mol group=XH-P
  O   -0.691021334   3.282543723   0.000000000
  H   -1.057771960   2.394413199   0.000000000
  C    0.725330428   3.188416135   0.000000000
  H    1.110606985   4.205205472   0.000000000
  H    1.103186055   2.675156900   0.888747891
  H    1.103186055   2.675156900  -0.888747891
  P    0.239546808  -4.949663258   0.000000000
  P    0.148641750  -3.050166499  -1.105768740
  P    0.148641750  -3.050166499   1.105768740
  P    1.973186797  -3.586506306   0.000000000
