10
charge=0 charge_a=0 charge_b=0 selection_a=1-6 selection_b=7-10 scaling=0.9 benchmark_Eint=-1.596 benchmark_unit=kcal/mol group=XH-P
  O   -0.691021334   3.282543723   0.000000000
  H   -1.057771960   2.394413199   0.000000000
  C    0.725330428   3.188416135   0.000000000
  H    1.110606985   4.205205472   0.000000000
  H    1.103186055   2.675156900   0.888747891
  H    1.103186055   2.675156900  -0.888747891
  P   -0.450068853  -1.837407988   0.000000000
  P   -0.540973911   0.062088771  -1.105768740
  P   -0.540973911   0.062088771   1.105768740
  P    1.283571136  -0.474251036   0.000000000
