7
charge=0 charge_a=0 charge_b=0 selection_a=1-3 selection_b=4-7 scaling=1.5 benchmark_Eint=-0.399 benchmark_unit=kcal/mol group=XH-P
  O   -0.055282958  -3.813648339   0.000000000
  H   -0.046670971  -2.851240870   0.000000000
  H    0.870130074  -4.069307195   0.000000000
  P    0.035069682   2.739712993  -1.103647172
  P   -1.111341602   1.220310547   0.000000000
  P    1.101494787   1.165449094   0.000000000
  P    0.035069682   2.739712993   1.103647172
