7
charge=0 charge_a=0 charge_b=0 selection_a=1-3 selection_b=4-7 scaling=0.85 benchmark_Eint=0.237 benchmark_unit=kcal/mol group=XH-P
  O   -0.055282958  -3.813648339   0.000000000
  H   -0.046670971  -2.851240870   0.000000000
  H    0.870130074  -4.069307195   0.000000000
  P    0.016044816   0.896758635  -1.103647172
  P   -1.130366468  -0.622643811   0.000000000
  P    1.082469921  -0.677505264   0.000000000
  P    0.016044816   0.896758635   1.103647172
