8
charge=0 charge_a=0 charge_b=0 selection_a=1-4 selection_b=5-8 scaling=1.05 benchmark_Eint=-2.015 benchmark_unit=kcal/mol group=XH-P
  P    0.744112094  -3.104102616  -0.148353380
  F    1.659188062  -2.295848043   0.879126275
  F    1.133200289  -2.338287709  -1.493177108
  H   -0.442119718  -2.346413712   0.100993132
  P    0.653588191   1.127628205   0.791691660
  P   -1.442473509   0.511869611   0.517206884
  P   -0.848417175   2.591890468   0.113143858
  P   -0.190405232   0.977107335  -1.234580858
