8
charge=0 charge_a=0 charge_b=0 selection_a=1-4 selection_b=5-8 scaling=0.9 benchmark_Eint=-0.962 benchmark_unit=kcal/mol group=XH-P
  P    0.744112094  -3.104102616  -0.148353380
  F    1.659188062  -2.295848043   0.879126275
  F    1.133200289  -2.338287709  -1.493177108
  H   -0.442119718  -2.346413712   0.100993132
  P    0.796495876   0.719302016   0.732232553
  P   -1.299565824   0.103543422   0.457747777
  P   -0.705509490   2.183564279   0.053684750
  P   -0.047497547   0.568781146  -1.294039965
