8
charge=0 charge_a=0 charge_b=0 selection_a=1-4 selection_b=5-8 scaling=0.8 benchmark_Eint=3.355 benchmark_unit=kcal/mol group=XH-P
  P    0.744112094  -3.104102616  -0.148353380
  F    1.659188062  -2.295848043   0.879126275
  F    1.133200289  -2.338287709  -1.493177108
  H   -0.442119718  -2.346413712   0.100993132
  P    0.891767665   0.447084556   0.692593148
  P   -1.204294035  -0.168674038   0.418108372
  P   -0.610237701   1.911346819   0.014045345
  P    0.047774242   0.296563686  -1.333679370
