17
charge=0 charge_a=0 charge_b=0 selection_a=1-6 selection_b=7-17 scaling=0.8 benchmark_Eint=1.948 benchmark_unit=kcal/mol group=XH-P
  H    2.342786443  -0.084659452   0.135623443
  H    2.811872286   0.335891185   1.789041428
  H    1.142378625   0.590995421   1.258094484
  H    0.645472434  -2.001413154   0.944035276
  C    2.009640629  -0.054668635   1.168249168
  S    1.648385678  -1.726924086   1.793003242
  H    0.679254441  -0.525897720  -2.360658937
  H   -1.999110671  -0.216400909   1.424824655
  C    0.425808756   1.315955439  -1.336325001
  C    0.195505952  -0.038473783  -1.523260797
  P   -0.812769835  -1.031050264  -0.522205129
  C   -1.340173656   0.139355172   0.642749983
  C   -0.984175091   1.479045749   0.650003645
  C   -0.138264368   2.047618898  -0.296976139
  H   -1.378993624   2.117650160   1.430579056
  H    0.091751040   3.101057329  -0.220178928
  H    1.076878828   1.833488217  -2.030082407
