17
charge=0 charge_a=0 charge_b=0 selection_a=1-6 selection_b=7-17 scaling=0.85 benchmark_Eint=-0.728 benchmark_unit=kcal/mol group=XH-P
  H    2.342786443  -0.084659452   0.135623443
  H    2.811872286   0.335891185   1.789041428
  H    1.142378625   0.590995421   1.258094484
  H    0.645472434  -2.001413154   0.944035276
  C    2.009640629  -0.054668635   1.168249168
  S    1.648385678  -1.726924086   1.793003242
  H    0.588114299  -0.465250040  -2.452298962
  H   -2.090250813  -0.155753229   1.333184630
  C    0.334668614   1.376603119  -1.427965026
  C    0.104365810   0.022173897  -1.614900822
  P   -0.903909977  -0.970402584  -0.613845154
  C   -1.431313798   0.200002852   0.551109958
  C   -1.075315233   1.539693429   0.558363620
  C   -0.229404510   2.108266578  -0.388616164
  H   -1.470133766   2.178297840   1.338939031
  H    0.000610898   3.161705009  -0.311818953
  H    0.985738686   1.894135897  -2.121722432
