17
charge=0 charge_a=0 charge_b=0 selection_a=1-6 selection_b=7-17 scaling=1.05 benchmark_Eint=-3.138 benchmark_unit=kcal/mol group=XH-P
  H    2.342786443  -0.084659452   0.135623443
  H    2.811872286   0.335891185   1.789041428
  H    1.142378625   0.590995421   1.258094484
  H    0.645472434  -2.001413154   0.944035276
  C    2.009640629  -0.054668635   1.168249168
  S    1.648385678  -1.726924086   1.793003242
  H    0.223553732  -0.222659317  -2.818859063
  H   -2.454811380   0.086837494   0.966624529
  C   -0.029891953   1.619193842  -1.794525127
  C   -0.260194757   0.264764620  -1.981460923
  P   -1.268470544  -0.727811861  -0.980405255
  C   -1.795874365   0.442593575   0.184549857
  C   -1.439875800   1.782284152   0.191803519
  C   -0.593965077   2.350857301  -0.755176265
  H   -1.834694333   2.420888563   0.972378930
  H   -0.363949669   3.404295732  -0.678379054
  H    0.621178119   2.136726620  -2.488282533
