17
charge=0 charge_a=0 charge_b=0 selection_a=1-6 selection_b=7-17 scaling=0.95 benchmark_Eint=-2.931 benchmark_unit=kcal/mol group=XH-P
  H    2.342786443  -0.084659452   0.135623443
  H    2.811872286   0.335891185   1.789041428
  H    1.142378625   0.590995421   1.258094484
  H    0.645472434  -2.001413154   0.944035276
  C    2.009640629  -0.054668635   1.168249168
  S    1.648385678  -1.726924086   1.793003242
  H    0.405834016  -0.343954679  -2.635579013
  H   -2.272531096  -0.034457868   1.149904579
  C    0.152388331   1.497898480  -1.611245077
  C   -0.077914473   0.143469258  -1.798180873
  P   -1.086190260  -0.849107223  -0.797125205
  C   -1.613594081   0.321298213   0.367829907
  C   -1.257595516   1.660988790   0.375083569
  C   -0.411684793   2.229561939  -0.571896215
  H   -1.652414049   2.299593201   1.155658980
  H   -0.181669385   3.283000370  -0.495099004
  H    0.803458403   2.015431258  -2.305002483
