19
charge=0 charge_a=0 charge_b=0 selection_a=1-6 selection_b=7-19 scaling=0.85 benchmark_Eint=-1.509 benchmark_unit=kcal/mol group=XH-P
  H    2.830340409  -2.003366876  -0.312303789
  H    3.414675953  -1.333093273   1.217360608
  H    2.499245547  -0.306007439   0.104991385
  H    0.250249400  -1.623277240   0.362177193
  C    2.602582633  -1.314174713   0.495435724
  S    1.098043907  -1.823588393   1.387326264
  H   -1.645275706  -0.291182314   1.480606318
  H   -2.824909872  -0.391896590   0.173871506
  H   -2.362147136   1.192052434   0.824682779
  H    0.898927888   1.016150562   1.070489628
  H   -0.054076871   2.380729432   0.456419135
  H    1.301804921   1.740304332  -0.489145192
  H   -2.195831396   0.800513534  -2.442804957
  H   -0.647348409   1.600026873  -2.692351561
  H   -1.796795287   2.256411515  -1.511494928
  P   -0.624588376   0.251029027  -0.660598146
  C   -1.998168267   0.194799494   0.572152007
  C    0.480597770   1.472234582   0.174445549
  C   -1.392279997   1.338759970  -1.941869310
