9
charge=0 charge_a=0 charge_b=0 selection_a=1-3 selection_b=4-9 scaling=0.8 benchmark_Eint=1.653 benchmark_unit=kcal/mol group=XH-P
  H    0.020542336  -0.413691647  -0.573223040
  H    1.438772101  -0.686744351   0.722528447
  S    1.343149904  -0.651669470  -0.614618208
  H   -1.519800267  -3.490562468  -1.763844141
  H   -1.495518393  -3.723137134  -0.012770642
  H   -0.098292249  -3.010013495  -0.828970650
  P   -2.343507998  -0.318788961  -0.440453114
  C   -1.751468709  -1.727948022  -0.635343772
  C   -1.189290843  -3.054618725  -0.819391098
