9
charge=0 charge_a=0 charge_b=0 selection_a=1-3 selection_b=4-9 scaling=1.5 benchmark_Eint=-0.753 benchmark_unit=kcal/mol group=XH-P
  H    0.020542336  -0.413691647  -0.573223040
  H    1.438772101  -0.686744351   0.722528447
  S    1.343149904  -0.651669470  -0.614618208
  H   -3.588344310  -3.407522618  -1.647670456
  H   -3.564062436  -3.640097284   0.103403042
  H   -2.166836292  -2.926973646  -0.712796966
  P   -4.412052041  -0.235749112  -0.324279430
  C   -3.820012752  -1.644908172  -0.519170088
  C   -3.257834886  -2.971578876  -0.703217414
