9
charge=0 charge_a=0 charge_b=0 selection_a=1-3 selection_b=4-9 scaling=1.0 benchmark_Eint=-2.449 benchmark_unit=kcal/mol group=XH-P
  H    0.020542336  -0.413691647  -0.573223040
  H    1.438772101  -0.686744351   0.722528447
  S    1.343149904  -0.651669470  -0.614618208
  H   -2.110812851  -3.466836797  -1.730651660
  H   -2.086530977  -3.699411463   0.020421839
  H   -0.689304833  -2.986287824  -0.795778169
  P   -2.934520582  -0.295063290  -0.407260633
  C   -2.342481293  -1.704222351  -0.602151291
  C   -1.780303427  -3.030893054  -0.786198617
