7
charge=0 charge_a=0 charge_b=0 selection_a=1-3 selection_b=4-7 scaling=0.9 benchmark_Eint=-0.865 benchmark_unit=kcal/mol group=XH-P
  H    0.645614250   0.470582030   0.065841731
  H    1.602452768   1.491606756   1.413105006
  S    1.654629066   1.359580835   0.079663563
  P   -1.346669384  -1.121400136  -0.093332822
  H   -2.038306404  -1.214728310  -1.325289612
  H   -1.321874036  -2.521581929   0.115707078
  H   -2.524140799  -0.925720392   0.668434230
