7
charge=0 charge_a=0 charge_b=0 selection_a=1-3 selection_b=4-7 scaling=0.85 benchmark_Eint=-0.017 benchmark_unit=kcal/mol group=XH-P
  H    0.645614250   0.470582030   0.065841731
  H    1.602452768   1.491606756   1.413105006
  S    1.654629066   1.359580835   0.079663563
  P   -1.235986960  -1.032956682  -0.084489792
  H   -1.927623980  -1.126284856  -1.316446582
  H   -1.211191612  -2.433138475   0.124550109
  H   -2.413458375  -0.837276938   0.677277261
