7
charge=0 charge_a=0 charge_b=0 selection_a=1-3 selection_b=4-7 scaling=1.05 benchmark_Eint=-1.499 benchmark_unit=kcal/mol group=XH-P
  H    0.645614250   0.470582030   0.065841731
  H    1.602452768   1.491606756   1.413105006
  S    1.654629066   1.359580835   0.079663563
  P   -1.678716656  -1.386730497  -0.119861915
  H   -2.370353676  -1.480058671  -1.351818705
  H   -1.653921308  -2.786912290   0.089177986
  H   -2.856188071  -1.191050753   0.641905138
