7
charge=0 charge_a=0 charge_b=0 selection_a=1-3 selection_b=4-7 scaling=1.25 benchmark_Eint=-1.053 benchmark_unit=kcal/mol group=XH-P
  H    0.645614250   0.470582030   0.065841731
  H    1.602452768   1.491606756   1.413105006
  S    1.654629066   1.359580835   0.079663563
  P   -2.121446352  -1.740504311  -0.155234038
  H   -2.813083372  -1.833832485  -1.387190828
  H   -2.096651004  -3.140686104   0.053805863
  H   -3.298917768  -1.544824567   0.606533015
