7
charge=0 charge_a=0 charge_b=0 selection_a=1-3 selection_b=4-7 scaling=1.5 benchmark_Eint=-0.539 benchmark_unit=kcal/mol group=XH-P
  H    0.645614250   0.470582030   0.065841731
  H    1.602452768   1.491606756   1.413105006
  S    1.654629066   1.359580835   0.079663563
  P   -2.674858473  -2.182721580  -0.199449192
  H   -3.366495493  -2.276049754  -1.431405982
  H   -2.650063125  -3.582903372   0.009590710
  H   -3.852329888  -1.987041836   0.562317862
