14
charge=0 charge_a=0 charge_b=0 selection_a=1-3 selection_b=4-14 scaling=1.1 benchmark_Eint=-2.108 benchmark_unit=kcal/mol group=XH-P
  H    1.519797422   2.318425902   0.423570945
  H    3.309369570   1.790796869  -0.096292673
  S    2.715564620   2.217844740   1.027759485
  H    0.871540422  -0.697772390   0.893214170
  H   -2.763720276   0.206512545  -1.860611768
  C   -0.519270154  -2.218925492   0.364313344
  C   -0.029289915  -0.922265324   0.336161610
  P   -0.748731638   0.394711459  -0.528628044
  C   -2.112944578  -0.399853601  -1.243042720
  C   -2.427630468  -1.740513399  -1.082717256
  C   -1.667140544  -2.615352691  -0.313760962
  H   -3.308125020  -2.130469365  -1.578501708
  H   -1.982095924  -3.646916177  -0.240049300
  H    0.014919821  -2.963388134   0.941875056
