14
charge=0 charge_a=0 charge_b=0 selection_a=1-3 selection_b=4-14 scaling=0.8 benchmark_Eint=1.282 benchmark_unit=kcal/mol group=XH-P
  H    1.519797422   2.318425902   0.423570945
  H    3.309369570   1.790796869  -0.096292673
  S    2.715564620   2.217844740   1.027759485
  H    1.490230166  -0.173122997   1.152904803
  H   -2.145030533   0.731161938  -1.600921134
  C    0.099419590  -1.694276099   0.624003978
  C    0.589399829  -0.397615931   0.595852244
  P   -0.130041894   0.919360852  -0.268937411
  C   -1.494254834   0.124795792  -0.983352086
  C   -1.808940725  -1.215864006  -0.823026622
  C   -1.048450800  -2.090703298  -0.054070328
  H   -2.689435277  -1.605819972  -1.318811075
  H   -1.363406181  -3.122266784   0.019641334
  H    0.633609565  -2.438738741   1.201565689
