14
charge=0 charge_a=0 charge_b=0 selection_a=1-3 selection_b=4-14 scaling=1.0 benchmark_Eint=-2.255 benchmark_unit=kcal/mol group=XH-P
  H    1.519797422   2.318425902   0.423570945
  H    3.309369570   1.790796869  -0.096292673
  S    2.715564620   2.217844740   1.027759485
  H    1.077770337  -0.522889259   0.979777714
  H   -2.557490362   0.381395676  -1.774048223
  C   -0.313040239  -2.044042361   0.450876889
  C    0.176940000  -0.747382193   0.422725155
  P   -0.542501723   0.569594590  -0.442064500
  C   -1.906714663  -0.224970470  -1.156479175
  C   -2.221400554  -1.565630268  -0.996153711
  C   -1.460910629  -2.440469560  -0.227197417
  H   -3.101895106  -1.955586234  -1.491938164
  H   -1.775866010  -3.472033046  -0.153485755
  H    0.221149736  -2.788505003   1.028438600
