16
charge=0 charge_a=0 charge_b=0 selection_a=1-3 selection_b=4-16 scaling=1.5 benchmark_Eint=-1.293 benchmark_unit=kcal/mol group=XH-P
  H    0.893794006   1.515332247  -0.345187693
  H    2.645035627   1.487578252  -1.194174060
  S    2.143912497   1.919000715  -0.027657068
  H   -3.600135891  -2.223297207  -1.409333453
  H   -4.189865213  -1.493278224   0.080449009
  H   -3.447621874  -3.103825545   0.123076179
  H   -0.731301031  -2.785236875  -1.730548108
  H   -0.867526369  -3.606893626  -0.164405690
  H    0.387652149  -2.381198772  -0.429322189
  H   -2.305104360  -0.841894256   2.239610522
  H   -0.587034492  -1.175474032   2.030940614
  H   -1.748062968  -2.516694230   2.061904748
  P   -1.765885256  -1.305456060  -0.091998364
  C   -3.404769506  -2.118102789  -0.343061544
  C   -0.641850957  -2.657465792  -0.652531699
  C   -1.587606900  -1.487946022   1.735489503
