16
charge=0 charge_a=0 charge_b=0 selection_a=1-3 selection_b=4-16 scaling=1.0 benchmark_Eint=-3.072 benchmark_unit=kcal/mol group=XH-P
  H    0.893794006   1.515332247  -0.345187693
  H    2.645035627   1.487578252  -1.194174060
  S    2.143912497   1.919000715  -0.027657068
  H   -2.713576137  -1.283034438  -1.493729896
  H   -3.303305459  -0.553015455  -0.003947434
  H   -2.561062120  -2.163562776   0.038679736
  H    0.155258723  -1.844974106  -1.814944551
  H    0.019033385  -2.666630857  -0.248802133
  H    1.274211903  -1.440936003  -0.513718632
  H   -1.418544606   0.098368513   2.155214079
  H    0.299525262  -0.235211263   1.946544171
  H   -0.861503214  -1.576431461   1.977508305
  P   -0.879325502  -0.365193291  -0.176394807
  C   -2.518209752  -1.177840020  -0.427457987
  C    0.244708797  -1.717203023  -0.736928142
  C   -0.701047146  -0.547683253   1.651093060
