16
charge=0 charge_a=0 charge_b=0 selection_a=1-3 selection_b=4-16 scaling=1.25 benchmark_Eint=-2.332 benchmark_unit=kcal/mol group=XH-P
  H    0.893794006   1.515332247  -0.345187693
  H    2.645035627   1.487578252  -1.194174060
  S    2.143912497   1.919000715  -0.027657068
  H   -3.156856014  -1.753165822  -1.451531674
  H   -3.746585336  -1.023146840   0.038250788
  H   -3.004341997  -2.633694160   0.080877958
  H   -0.288021154  -2.315105490  -1.772746330
  H   -0.424246492  -3.136762242  -0.206603912
  H    0.830932026  -1.911067388  -0.471520410
  H   -1.861824483  -0.371762872   2.197412300
  H   -0.143754615  -0.705342648   1.988742392
  H   -1.304783091  -2.046562846   2.019706526
  P   -1.322605379  -0.835324676  -0.134196586
  C   -2.961489629  -1.647971404  -0.385259766
  C   -0.198571080  -2.187334408  -0.694729920
  C   -1.144327023  -1.017814638   1.693291282
