16
charge=0 charge_a=0 charge_b=0 selection_a=1-2 selection_b=3-16 scaling=2.0 benchmark_Eint=-1.106 benchmark_unit=kcal/mol group=XH-P
  H   -0.024515893   2.370885834   0.000000000
  F   -0.344763424   3.255166431   0.000000000
  H    3.550483386  -2.057994509   0.000000000
  H    2.924890121  -3.448431390   0.886368272
  H    2.924890121  -3.448431390  -0.886368272
  H   -1.601485306  -1.712760627   0.000000000
  H   -0.267435580  -5.137711111   0.875133540
  H   -1.985082360  -3.199256031  -0.877385818
  H   -1.985082360  -3.199256031   0.877385818
  H    1.255536169  -4.957202855   0.000000000
  H   -0.267435580  -5.137711111  -0.875133540
  P    1.130999805  -2.001723652   0.000000000
  C   -0.029632046  -3.205427355   0.000000000
  C   -1.475143942  -2.793484444   0.000000000
  C    0.205093883  -4.683756607   0.000000000
  C    2.785239344  -2.831616655   0.000000000
