16
charge=0 charge_a=0 charge_b=0 selection_a=1-2 selection_b=3-16 scaling=0.85 benchmark_Eint=-3.589 benchmark_unit=kcal/mol group=XH-P
  H   -0.024515893   2.370885834   0.000000000
  F   -0.344763424   3.255166431   0.000000000
  H    2.886061860   0.456255945   0.000000000
  H    2.260468595  -0.934180936   0.886368272
  H    2.260468595  -0.934180936  -0.886368272
  H   -2.265906832   0.801489827   0.000000000
  H   -0.931857106  -2.623460657   0.875133540
  H   -2.649503886  -0.685005577  -0.877385818
  H   -2.649503886  -0.685005577   0.877385818
  H    0.591114643  -2.442952401   0.000000000
  H   -0.931857106  -2.623460657  -0.875133540
  P    0.466578279   0.512526802   0.000000000
  C   -0.694053572  -0.691176901   0.000000000
  C   -2.139565468  -0.279233990   0.000000000
  C   -0.459327643  -2.169506153   0.000000000
  C    2.120817818  -0.317366201   0.000000000
