8
charge=0 charge_a=0 charge_b=0 selection_a=1-2 selection_b=3-8 scaling=0.95 benchmark_Eint=-4.294 benchmark_unit=kcal/mol group=XH-P
  H   -0.309778637   1.408639177   0.033212071
  F   -0.130618760   2.322985077  -0.026014150
  H    2.033208003   0.553782110  -0.963857389
  H    2.418441879  -1.148022479  -0.672920062
  H    2.387690214  -0.000986506   0.672686006
  P   -0.994684422  -0.898801073   0.159827373
  C    0.495264194  -0.563924711  -0.058878524
  C    1.904792170  -0.275250651  -0.266501110
