8
charge=0 charge_a=0 charge_b=0 selection_a=1-2 selection_b=3-8 scaling=1.1 benchmark_Eint=-4.222 benchmark_unit=kcal/mol group=XH-P
  H   -0.309778637   1.408639177   0.033212071
  F   -0.130618760   2.322985077  -0.026014150
  H    1.925064984   0.189449439  -0.943865500
  H    2.310298860  -1.512355150  -0.652928172
  H    2.279547195  -0.365319177   0.692677896
  P   -1.102827441  -1.263133744   0.179819262
  C    0.387121175  -0.928257382  -0.038886634
  C    1.796649151  -0.639583322  -0.246509220
