6
charge=0 charge_a=0 charge_b=0 selection_a=1-2 selection_b=3-6 scaling=1.05 benchmark_Eint=-5.186 benchmark_unit=kcal/mol group=XH-P
  H    0.086945339   0.054117457  -0.739641941
  F   -0.023143367  -0.097459753  -1.657916584
  P    0.363258432   0.447982369   1.623747418
  H   -0.281719979  -0.366701411   2.579945233
  H    1.636396024   0.395135775   2.232294665
  H   -0.018717698   1.675888734   2.207145018
