6
charge=0 charge_a=0 charge_b=0 selection_a=1-2 selection_b=3-6 scaling=0.85 benchmark_Eint=-2.255 benchmark_unit=kcal/mol group=XH-P
  H    0.086945339   0.054117457  -0.739641941
  F   -0.023143367  -0.097459753  -1.657916584
  P    0.310627367   0.372960481   1.173578017
  H   -0.334351044  -0.441723299   2.129775832
  H    1.583764959   0.320113887   1.782125264
  H   -0.071348763   1.600866846   1.756975617
