6
charge=0 charge_a=0 charge_b=0 selection_a=1-2 selection_b=3-6 scaling=0.95 benchmark_Eint=-4.881 benchmark_unit=kcal/mol group=XH-P
  H    0.086945339   0.054117457  -0.739641941
  F   -0.023143367  -0.097459753  -1.657916584
  P    0.336942900   0.410471425   1.398662718
  H   -0.308035511  -0.404212355   2.354860533
  H    1.610080492   0.357624831   2.007209965
  H   -0.045033230   1.638377790   1.982060318
