6
charge=0 charge_a=0 charge_b=0 selection_a=1-2 selection_b=3-6 scaling=1.1 benchmark_Eint=-4.958 benchmark_unit=kcal/mol group=XH-P
  H    0.086945339   0.054117457  -0.739641941
  F   -0.023143367  -0.097459753  -1.657916584
  P    0.376416199   0.466737841   1.736289769
  H   -0.268562212  -0.347945939   2.692487584
  H    1.649553791   0.413891247   2.344837016
  H   -0.005559931   1.694644206   2.319687369
