6
charge=0 charge_a=0 charge_b=0 selection_a=1-2 selection_b=3-6 scaling=1.5 benchmark_Eint=-2.143 benchmark_unit=kcal/mol group=XH-P
  H    0.086945339   0.054117457  -0.739641941
  F   -0.023143367  -0.097459753  -1.657916584
  P    0.481678330   0.616781617   2.636628572
  H   -0.163300082  -0.197902163   3.592826388
  H    1.754815922   0.563935023   3.245175820
  H    0.099702200   1.844687982   3.220026172
