13
charge=0 charge_a=0 charge_b=0 selection_a=1-2 selection_b=3-13 scaling=2.0 benchmark_Eint=-0.828 benchmark_unit=kcal/mol group=XH-P
  H   -0.000000000   0.000000000  -2.916476279
  F   -0.000000000   0.000000000  -3.853087078
  H    0.000000000  -2.329292782   2.347910072
  H    0.000000000   2.329292782   2.347910072
  C    0.000000000  -1.222321739   4.164636863
  C    0.000000000  -1.338333114   2.782972375
  P    0.000000000   0.000000000   1.691879097
  C    0.000000000   1.338333114   2.782972375
  C    0.000000000   1.222321739   4.164636863
  C    0.000000000   0.000000000   4.828614527
  H    0.000000000   2.126697409   4.759957343
  H    0.000000000   0.000000000   5.909480077
  H    0.000000000  -2.126697409   4.759957343
