13
charge=0 charge_a=0 charge_b=0 selection_a=1-2 selection_b=3-13 scaling=1.1 benchmark_Eint=-5.016 benchmark_unit=kcal/mol group=XH-P
  H   -0.000000000   0.000000000  -2.916476279
  F   -0.000000000   0.000000000  -3.853087078
  H    0.000000000  -2.329292782   0.274150153
  H    0.000000000   2.329292782   0.274150153
  C    0.000000000  -1.222321739   2.090876944
  C    0.000000000  -1.338333114   0.709212456
  P    0.000000000   0.000000000  -0.381880822
  C    0.000000000   1.338333114   0.709212456
  C    0.000000000   1.222321739   2.090876944
  C    0.000000000   0.000000000   2.754854608
  H    0.000000000   2.126697409   2.686197424
  H    0.000000000   0.000000000   3.835720158
  H    0.000000000  -2.126697409   2.686197424
