15
charge=0 charge_a=0 charge_b=0 selection_a=1-2 selection_b=3-15 scaling=1.25 benchmark_Eint=-7.518 benchmark_unit=kcal/mol group=XH-P
  H    0.021711194  -0.070466752  -0.433952518
  F   -0.040497483   0.050423682  -1.376320300
  H    2.087333665  -1.945658130   2.440130886
  H    0.555619360  -2.814197428   2.439337505
  H    1.102246325  -1.994655816   3.915267003
  H    2.123290964   0.966644914   2.816832007
  H    1.134184247   0.664004733   4.258680868
  H    0.613226892   1.844334508   3.040360581
  H   -1.962609063  -1.351090406   2.812006255
  H   -1.941457459   0.395186634   3.037389678
  H   -1.197840471  -0.658901444   4.255911309
  P    0.208636738  -0.417165928   2.250219122
  C    1.069543996  -1.935977279   2.826717461
  C    1.104108693   0.884213204   3.190926720
  C   -1.369537133  -0.518991592   3.187985933
