15
charge=0 charge_a=0 charge_b=0 selection_a=1-2 selection_b=3-15 scaling=1.5 benchmark_Eint=-4.547 benchmark_unit=kcal/mol group=XH-P
  H    0.021711194  -0.070466752  -0.433952518
  F   -0.040497483   0.050423682  -1.376320300
  H    2.124718774  -2.014997966   2.976965214
  H    0.593004468  -2.883537264   2.976171833
  H    1.139631434  -2.063995652   4.452101331
  H    2.160676072   0.897305078   3.353666335
  H    1.171569356   0.594664898   4.795515196
  H    0.650612000   1.774994672   3.577194909
  H   -1.925223954  -1.420430242   3.348840583
  H   -1.904072350   0.325846798   3.574224006
  H   -1.160455362  -0.728241280   4.792745637
  P    0.246021846  -0.486505764   2.787053450
  C    1.106929104  -2.005317114   3.363551789
  C    1.141493802   0.814873368   3.727761048
  C   -1.332152024  -0.588331428   3.724820261
