15
charge=0 charge_a=0 charge_b=0 selection_a=1-2 selection_b=3-15 scaling=0.85 benchmark_Eint=-5.858 benchmark_unit=kcal/mol group=XH-P
  H    0.021711194  -0.070466752  -0.433952518
  F   -0.040497483   0.050423682  -1.376320300
  H    2.027517491  -1.834714394   1.581195961
  H    0.495803186  -2.703253692   1.580402580
  H    1.042430151  -1.883712080   3.056332078
  H    2.063474790   1.077588650   1.957897082
  H    1.074368073   0.774948469   3.399745943
  H    0.553410718   1.955278244   2.181425656
  H   -2.022425237  -1.240146670   1.953071330
  H   -2.001273633   0.506130370   2.178454753
  H   -1.257656645  -0.547957708   3.396976384
  P    0.148820564  -0.306222192   1.391284197
  C    1.009727822  -1.825033543   1.967782536
  C    1.044292519   0.995156940   2.331991795
  C   -1.429353307  -0.408047856   2.329051008
