15
charge=0 charge_a=0 charge_b=0 selection_a=1-2 selection_b=3-15 scaling=0.8 benchmark_Eint=-1.853 benchmark_unit=kcal/mol group=XH-P
  H    0.021711194  -0.070466752  -0.433952518
  F   -0.040497483   0.050423682  -1.376320300
  H    2.020040469  -1.820846427   1.473829096
  H    0.488326164  -2.689385725   1.473035715
  H    1.034953129  -1.869844113   2.948965213
  H    2.055997768   1.091456617   1.850530217
  H    1.066891051   0.788816436   3.292379078
  H    0.545933696   1.969146211   2.074058791
  H   -2.029902259  -1.226278703   1.845704465
  H   -2.008750655   0.519998337   2.071087888
  H   -1.265133667  -0.534089741   3.289609519
  P    0.141343542  -0.292354225   1.283917332
  C    1.002250800  -1.811165576   1.860415671
  C    1.036815497   1.009024907   2.224624930
  C   -1.436830329  -0.394179889   2.221684143
