15
charge=0 charge_a=0 charge_b=0 selection_a=1-2 selection_b=3-15 scaling=1.05 benchmark_Eint=-9.726 benchmark_unit=kcal/mol group=XH-P
  H    0.021711194  -0.070466752  -0.433952518
  F   -0.040497483   0.050423682  -1.376320300
  H    2.057425578  -1.890186262   2.010663424
  H    0.525711273  -2.758725560   2.009870043
  H    1.072338238  -1.939183948   3.485799541
  H    2.093382877   1.022116782   2.387364545
  H    1.104276160   0.719476601   3.829213406
  H    0.583318805   1.899806376   2.610893119
  H   -1.992517150  -1.295618538   2.382538793
  H   -1.971365546   0.450658502   2.607922216
  H   -1.227748558  -0.603429576   3.826443847
  P    0.178728651  -0.361694060   1.820751660
  C    1.039635909  -1.880505411   2.397249999
  C    1.074200606   0.939685072   2.761459258
  C   -1.399445220  -0.463519724   2.758518471
