15
charge=0 charge_a=0 charge_b=0 selection_a=1-2 selection_b=3-15 scaling=0.95 benchmark_Eint=-9.354 benchmark_unit=kcal/mol group=XH-P
  H    0.021711194  -0.070466752  -0.433952518
  F   -0.040497483   0.050423682  -1.376320300
  H    2.042471534  -1.862450328   1.795929692
  H    0.510757229  -2.730989626   1.795136311
  H    1.057384194  -1.911448014   3.271065809
  H    2.078428833   1.049852716   2.172630813
  H    1.089322116   0.747212535   3.614479674
  H    0.568364761   1.927542310   2.396159387
  H   -2.007471194  -1.267882604   2.167805061
  H   -1.986319590   0.478394436   2.393188484
  H   -1.242702602  -0.575693642   3.611710115
  P    0.163774607  -0.333958126   1.606017928
  C    1.024681865  -1.852769477   2.182516267
  C    1.059246562   0.967421006   2.546725526
  C   -1.414399264  -0.435783790   2.543784739
