15
charge=0 charge_a=0 charge_b=0 selection_a=1-2 selection_b=3-15 scaling=0.9 benchmark_Eint=-8.173 benchmark_unit=kcal/mol group=XH-P
  H    0.021711194  -0.070466752  -0.433952518
  F   -0.040497483   0.050423682  -1.376320300
  H    2.034994512  -1.848582361   1.688562827
  H    0.503280208  -2.717121659   1.687769446
  H    1.049907172  -1.897580047   3.163698944
  H    2.070951812   1.063720683   2.065263948
  H    1.081845094   0.761080502   3.507112809
  H    0.560887740   1.941410277   2.288792522
  H   -2.014948216  -1.254014637   2.060438196
  H   -1.993796612   0.492262403   2.285821619
  H   -1.250179624  -0.561825675   3.504343250
  P    0.156297586  -0.320090159   1.498651063
  C    1.017204844  -1.838901510   2.075149402
  C    1.051769540   0.981288973   2.439358661
  C   -1.421876286  -0.421915823   2.436417874
