18
charge=0 charge_a=0 charge_b=0 selection_a=1-2 selection_b=3-18 scaling=1.05 benchmark_Eint=-8.774 benchmark_unit=kcal/mol group=XH-P
  H   -0.000048316  -0.000060220  -2.097871376
  F   -0.000072473  -0.000051513  -3.047168784
  H   -3.432952503   0.005742060   0.863010743
  H   -2.587252366  -0.576500754  -0.586398735
  H   -2.538870690  -1.529781073   0.916455065
  H    1.712092746  -2.975579816   0.863488458
  H   -0.055537601   2.963526459   0.916883041
  H    1.793062122  -1.952486313  -0.586248457
  H    2.594378525  -1.433229051   0.916384923
  H    1.721282531   2.970215476   0.862694585
  O    0.888998407   1.114979800   0.952036957
  P    0.000012711  -0.000058060   0.199061559
  O   -1.410092672   0.212371511   0.952099188
  C   -2.555525502  -0.522620536   0.503048541
  O    0.521213755  -1.327386084   0.952147549
  C    1.730611027  -1.951633296   0.503203064
  C    0.824885947   2.474466761   0.503081974
  H    0.793621986   2.528937907  -0.586349827
