18
charge=0 charge_a=0 charge_b=0 selection_a=1-2 selection_b=3-18 scaling=2.0 benchmark_Eint=-1.216 benchmark_unit=kcal/mol group=XH-P
  H   -0.000048316  -0.000060220  -2.097871376
  F   -0.000072473  -0.000051513  -3.047168784
  H   -3.432897288   0.005744014   2.941188160
  H   -2.587197151  -0.576498800   1.491778682
  H   -2.538815475  -1.529779119   2.994632482
  H    1.712147961  -2.975577862   2.941665875
  H   -0.055482386   2.963528413   2.995060458
  H    1.793117337  -1.952484359   1.491928960
  H    2.594433740  -1.433227097   2.994562340
  H    1.721337746   2.970217430   2.940872002
  O    0.889053622   1.114981754   3.030214374
  P    0.000067926  -0.000056106   2.277238976
  O   -1.410037457   0.212373465   3.030276605
  C   -2.555470287  -0.522618582   2.581225958
  O    0.521268970  -1.327384130   3.030324966
  C    1.730666242  -1.951631342   2.581380481
  C    0.824941162   2.474468715   2.581259391
  H    0.793677201   2.528939861   1.491827590
