18
charge=0 charge_a=0 charge_b=0 selection_a=1-2 selection_b=3-18 scaling=0.95 benchmark_Eint=-8.438 benchmark_unit=kcal/mol group=XH-P
  H   -0.000048316  -0.000060220  -2.097871376
  F   -0.000072473  -0.000051513  -3.047168784
  H   -3.432958315   0.005741854   0.644255225
  H   -2.587258178  -0.576500960  -0.805154253
  H   -2.538876502  -1.529781279   0.697699547
  H    1.712086934  -2.975580022   0.644732940
  H   -0.055543413   2.963526253   0.698127523
  H    1.793056310  -1.952486519  -0.805003975
  H    2.594372713  -1.433229257   0.697629405
  H    1.721276719   2.970215270   0.643939067
  O    0.888992595   1.114979594   0.733281439
  P    0.000006899  -0.000058266  -0.019693959
  O   -1.410098484   0.212371305   0.733343670
  C   -2.555531314  -0.522620742   0.284293023
  O    0.521207943  -1.327386290   0.733392031
  C    1.730605215  -1.951633502   0.284447546
  C    0.824880135   2.474466555   0.284326456
  H    0.793616174   2.528937701  -0.805105345
