18
charge=0 charge_a=0 charge_b=0 selection_a=1-2 selection_b=3-18 scaling=1.1 benchmark_Eint=-8.420 benchmark_unit=kcal/mol group=XH-P
  H   -0.000048316  -0.000060220  -2.097871376
  F   -0.000072473  -0.000051513  -3.047168784
  H   -3.432949597   0.005742163   0.972388502
  H   -2.587249460  -0.576500651  -0.477020976
  H   -2.538867784  -1.529780970   1.025832824
  H    1.712095652  -2.975579713   0.972866217
  H   -0.055534695   2.963526562   1.026260800
  H    1.793065028  -1.952486210  -0.476870698
  H    2.594381431  -1.433228948   1.025762682
  H    1.721285437   2.970215579   0.972072344
  O    0.889001313   1.114979903   1.061414716
  P    0.000015617  -0.000057957   0.308439318
  O   -1.410089766   0.212371614   1.061476947
  C   -2.555522596  -0.522620433   0.612426300
  O    0.521216661  -1.327385981   1.061525308
  C    1.730613933  -1.951633193   0.612580823
  C    0.824888853   2.474466864   0.612459733
  H    0.793624892   2.528938010  -0.476972068
