16
charge=0 charge_a=0 charge_b=0 selection_a=1-2 selection_b=3-16 scaling=0.95 benchmark_Eint=-4.450 benchmark_unit=kcal/mol group=XH-P
  H    0.331345486   1.884346591   0.000000000
 Cl   -0.055022791   3.130768445   0.000000000
  H    3.013241982  -0.911900005   0.000000000
  H    2.109355162  -2.139567927   0.886439173
  H    2.109355162  -2.139567927  -0.886439173
  H   -1.964120164   0.488231511   0.000000000
  H   -1.352488207  -3.134682686   0.875104011
  H   -2.638510292  -0.890356478  -0.877293753
  H   -2.638510292  -0.890356478   0.877293753
  H    0.175141693  -3.269699898   0.000000000
  H   -1.352488207  -3.134682686  -0.875104011
  P    0.656930302  -0.346121490   0.000000000
  C   -0.723970228  -1.291487327   0.000000000
  C   -2.056904819  -0.595747280   0.000000000
  C   -0.796961793  -2.786822808   0.000000000
  C    2.102228916  -1.507113540   0.000000000
