16
charge=0 charge_a=0 charge_b=0 selection_a=1-2 selection_b=3-16 scaling=1.05 benchmark_Eint=-4.810 benchmark_unit=kcal/mol group=XH-P
  H    0.331345486   1.884346591   0.000000000
 Cl   -0.055022791   3.130768445   0.000000000
  H    3.047514068  -1.146686119   0.000000000
  H    2.143627248  -2.374354041   0.886439173
  H    2.143627248  -2.374354041  -0.886439173
  H   -1.929848078   0.253445397   0.000000000
  H   -1.318216121  -3.369468800   0.875104011
  H   -2.604238206  -1.125142592  -0.877293753
  H   -2.604238206  -1.125142592   0.877293753
  H    0.209413779  -3.504486012   0.000000000
  H   -1.318216121  -3.369468800  -0.875104011
  P    0.691202388  -0.580907604   0.000000000
  C   -0.689698142  -1.526273441   0.000000000
  C   -2.022632733  -0.830533394   0.000000000
  C   -0.762689707  -3.021608922   0.000000000
  C    2.136501002  -1.741899654   0.000000000
