16
charge=0 charge_a=0 charge_b=0 selection_a=1-2 selection_b=3-16 scaling=1.1 benchmark_Eint=-4.649 benchmark_unit=kcal/mol group=XH-P
  H    0.331345486   1.884346591   0.000000000
 Cl   -0.055022791   3.130768445   0.000000000
  H    3.064650111  -1.264079176   0.000000000
  H    2.160763291  -2.491747098   0.886439173
  H    2.160763291  -2.491747098  -0.886439173
  H   -1.912712035   0.136052340   0.000000000
  H   -1.301080078  -3.486861857   0.875104011
  H   -2.587102163  -1.242535649  -0.877293753
  H   -2.587102163  -1.242535649   0.877293753
  H    0.226549822  -3.621879069   0.000000000
  H   -1.301080078  -3.486861857  -0.875104011
  P    0.708338431  -0.698300661   0.000000000
  C   -0.672562099  -1.643666498   0.000000000
  C   -2.005496690  -0.947926451   0.000000000
  C   -0.745553664  -3.139001979   0.000000000
  C    2.153637045  -1.859292711   0.000000000
