8
charge=0 charge_a=0 charge_b=0 selection_a=1-2 selection_b=3-8 scaling=0.95 benchmark_Eint=-3.272 benchmark_unit=kcal/mol group=XH-P
  H    0.373563736   0.965915426   0.000000000
 Cl    0.159554978   2.242092151   0.000000000
  H   -2.455657928  -1.230454917  -0.883965785
  H   -2.118566982   0.261489071   0.000000000
  H   -2.455657928  -1.230454917   0.883965785
  P    0.953109027  -1.490511723   0.000000000
  C   -0.548112371  -1.138651180   0.000000000
  C   -1.965343933  -0.819287765   0.000000000
