8
charge=0 charge_a=0 charge_b=0 selection_a=1-2 selection_b=3-8 scaling=2.0 benchmark_Eint=-0.213 benchmark_unit=kcal/mol group=XH-P
  H    0.373563736   0.965915426   0.000000000
 Cl    0.159554978   2.242092151   0.000000000
  H   -1.815107869  -3.945453344  -0.883965785
  H   -1.478016923  -2.453509356   0.000000000
  H   -1.815107869  -3.945453344   0.883965785
  P    1.593659086  -4.205510150   0.000000000
  C    0.092437688  -3.853649607   0.000000000
  C   -1.324793874  -3.534286192   0.000000000
