6
charge=0 charge_a=0 charge_b=0 selection_a=1-2 selection_b=3-6 scaling=0.9 benchmark_Eint=-2.272 benchmark_unit=kcal/mol group=XH-P
  H    0.000000010   0.579234249   0.000000000
 Cl    0.000000019   1.877115859   0.000000000
  P   -0.000000017  -1.635941988   0.000000000
  H   -0.602085105  -2.376508209   1.042841949
  H   -0.602085105  -2.376508209  -1.042841949
  H    1.204170158  -2.376508223   0.000000000
