6
charge=0 charge_a=0 charge_b=0 selection_a=1-2 selection_b=3-6 scaling=1.5 benchmark_Eint=-1.376 benchmark_unit=kcal/mol group=XH-P
  H    0.000000010   0.579234249   0.000000000
 Cl    0.000000019   1.877115859   0.000000000
  P   -0.000000035  -3.112726146   0.000000000
  H   -0.602085123  -3.853292367   1.042841949
  H   -0.602085123  -3.853292367  -1.042841949
  H    1.204170140  -3.853292381   0.000000000
