13
charge=0 charge_a=0 charge_b=0 selection_a=1-2 selection_b=3-13 scaling=0.9 benchmark_Eint=-2.516 benchmark_unit=kcal/mol group=XH-P
  H    0.000000000   0.000000000  -2.466595611
 Cl    0.000000000   0.000000000  -3.764119587
  H    0.000000000  -2.328087241   0.404949607
  H   -0.000000000   2.328087241   0.404949607
  C    0.000000000  -1.221894466   2.220623866
  C    0.000000000  -1.336395966   0.838843222
  P    0.000000000   0.000000000  -0.257922130
  C   -0.000000000   1.336395966   0.838843222
  C   -0.000000000   1.221894466   2.220623866
  C    0.000000000   0.000000000   2.885280662
  H   -0.000000000   2.126635150   2.815600643
  H    0.000000000   0.000000000   3.966196345
  H    0.000000000  -2.126635150   2.815600643
