13
charge=0 charge_a=0 charge_b=0 selection_a=1-2 selection_b=3-13 scaling=0.95 benchmark_Eint=-3.232 benchmark_unit=kcal/mol group=XH-P
  H    0.000000000   0.000000000  -2.466595611
 Cl    0.000000000   0.000000000  -3.764119587
  H    0.000000000  -2.328087241   0.527653690
  H   -0.000000000   2.328087241   0.527653690
  C    0.000000000  -1.221894466   2.343327949
  C    0.000000000  -1.336395966   0.961547305
  P    0.000000000   0.000000000  -0.135218047
  C   -0.000000000   1.336395966   0.961547305
  C   -0.000000000   1.221894466   2.343327949
  C    0.000000000   0.000000000   3.007984745
  H   -0.000000000   2.126635150   2.938304726
  H    0.000000000   0.000000000   4.088900428
  H    0.000000000  -2.126635150   2.938304726
