13
charge=0 charge_a=0 charge_b=0 selection_a=1-2 selection_b=3-13 scaling=0.8 benchmark_Eint=1.119 benchmark_unit=kcal/mol group=XH-P
  H    0.000000000   0.000000000  -2.466595611
 Cl    0.000000000   0.000000000  -3.764119587
  H    0.000000000  -2.328087241   0.159541443
  H   -0.000000000   2.328087241   0.159541443
  C    0.000000000  -1.221894466   1.975215702
  C    0.000000000  -1.336395966   0.593435058
  P    0.000000000   0.000000000  -0.503330294
  C   -0.000000000   1.336395966   0.593435058
  C   -0.000000000   1.221894466   1.975215702
  C    0.000000000   0.000000000   2.639872498
  H   -0.000000000   2.126635150   2.570192479
  H    0.000000000   0.000000000   3.720788181
  H    0.000000000  -2.126635150   2.570192479
