15
charge=0 charge_a=0 charge_b=0 selection_a=1-2 selection_b=3-15 scaling=0.85 benchmark_Eint=-3.956 benchmark_unit=kcal/mol group=XH-P
  H   -0.000000499   1.434839437   0.000000000
 Cl   -0.000001086   2.766485865   0.000000000
  H   -1.864508917  -0.969437730   1.468593928
  H   -0.339586521  -0.969437778   2.349008984
  H   -0.774557074  -2.363958564   1.341571094
  H   -1.864508917  -0.969437730  -1.468593928
  H   -0.774557074  -2.363958564  -1.341571094
  H   -0.339586521  -0.969437778  -2.349008984
  H    2.204094261  -0.969437502   0.880414679
  H    2.204094261  -0.969437502  -0.880414679
  H    1.549113005  -2.363958126   0.000000000
  P    0.000000728  -0.449264762   0.000000000
  C   -0.821113425  -1.277170084   1.422209664
  C   -0.821113425  -1.277170084  -1.422209664
  C    1.642227095  -1.277169772   0.000000000
