18
charge=0 charge_a=0 charge_b=0 selection_a=1-2 selection_b=3-18 scaling=0.9 benchmark_Eint=-4.820 benchmark_unit=kcal/mol group=XH-P
  H    0.000000661   0.000004134   1.789318403
 Cl    0.000002844   0.000008017   3.109521237
  H   -3.432718309  -0.018673392  -0.936618302
  H   -2.591090103   0.564738834   0.514390310
  H   -2.543035722   1.519340784  -0.987235548
  H    1.700170827   2.982162234  -0.936620164
  H   -0.044261557  -2.961999114  -0.987232895
  H    1.784613213   1.961588938   0.514391126
  H    2.587296642   1.442672944  -0.987234688
  H    1.732540954  -2.963473420  -0.936617953
  O    0.894668435  -1.110534956  -1.022756037
  P   -0.000001125  -0.000004682  -0.264543489
  O   -1.409078128  -0.219536176  -1.022763961
  C   -2.556923015   0.511508968  -0.575090390
  O    0.514409763   1.330061936  -1.022761058
  C    1.721430539   1.958611500  -0.575089004
  C    0.835489605  -2.470113610  -0.575085831
  H    0.806476742  -2.526311394   0.514393753
