18
charge=0 charge_a=0 charge_b=0 selection_a=1-2 selection_b=3-18 scaling=0.95 benchmark_Eint=-5.770 benchmark_unit=kcal/mol group=XH-P
  H    0.000000661   0.000004134   1.789318403
 Cl    0.000002844   0.000008017   3.109521237
  H   -3.432718408  -0.018673882  -1.050721741
  H   -2.591090202   0.564738345   0.400286871
  H   -2.543035821   1.519340294  -1.101338987
  H    1.700170728   2.982161744  -1.050723603
  H   -0.044261656  -2.961999604  -1.101336334
  H    1.784613114   1.961588449   0.400287687
  H    2.587296543   1.442672455  -1.101338127
  H    1.732540855  -2.963473909  -1.050721392
  O    0.894668336  -1.110535445  -1.136859476
  P   -0.000001224  -0.000005171  -0.378646928
  O   -1.409078227  -0.219536666  -1.136867400
  C   -2.556923114   0.511508479  -0.689193829
  O    0.514409664   1.330061447  -1.136864497
  C    1.721430440   1.958611010  -0.689192443
  C    0.835489506  -2.470114100  -0.689189270
  H    0.806476643  -2.526311884   0.400290314
