18
charge=0 charge_a=0 charge_b=0 selection_a=1-2 selection_b=3-18 scaling=1.25 benchmark_Eint=-4.830 benchmark_unit=kcal/mol group=XH-P
  H    0.000000661   0.000004134   1.789318403
 Cl    0.000002844   0.000008017   3.109521237
  H   -3.432719003  -0.018676821  -1.735342371
  H   -2.591090797   0.564735406  -0.284333759
  H   -2.543036416   1.519337355  -1.785959617
  H    1.700170133   2.982158805  -1.735344233
  H   -0.044262251  -2.962002543  -1.785956964
  H    1.784612519   1.961585510  -0.284332943
  H    2.587295948   1.442669516  -1.785958757
  H    1.732540260  -2.963476848  -1.735342022
  O    0.894667741  -1.110538384  -1.821480106
  P   -0.000001819  -0.000008110  -1.063267558
  O   -1.409078822  -0.219539605  -1.821488030
  C   -2.556923709   0.511505540  -1.373814459
  O    0.514409069   1.330058508  -1.821485127
  C    1.721429845   1.958608071  -1.373813073
  C    0.835488911  -2.470117039  -1.373809900
  H    0.806476048  -2.526314823  -0.284330316
