6
charge=0 charge_a=0 charge_b=0 selection_a=1-2 selection_b=3-6 scaling=0.95 benchmark_Eint=-1.649 benchmark_unit=kcal/mol group=XH-P
  H   -0.000000000  -0.000000000  -2.275117691
 Cl   -0.000000000  -0.000000000  -3.563134661
  P   -0.000000000   1.108766362   0.113793903
  P   -1.104102416  -0.000000000   1.658635462
  P    0.000000000  -1.108766362   0.113793903
  P    1.104102416   0.000000000   1.658635462
