16
charge=0 charge_a=0 charge_b=0 selection_a=1-2 selection_b=3-16 scaling=0.9 benchmark_Eint=-3.668 benchmark_unit=kcal/mol group=XH-P
  H   -0.102356188   0.043547349  -0.627319202
 Br   -1.017267085   0.867266820  -1.393091892
  H   -0.718079141  -3.208133620   1.011638927
  H   -0.545379798  -2.203369471   2.450789146
  H   -1.464978789  -1.611454519   1.056060450
  H    2.908953998   0.351764300   0.063042558
  H    0.719868611   1.138409041   3.011831820
  H    1.900635555   1.793690976   0.246264220
  H    2.853461887   1.219816384   1.604106526
  H   -0.644375006   0.133248670   2.509088448
  H   -0.272384629   1.630150042   1.653782690
  P    0.968642551  -1.510813599   0.615047563
  C    1.095235064   0.058262714   1.210345502
  C    2.258359962   0.891091584   0.748626817
  C    0.165389291   0.759476169   2.149607352
  C   -0.591514394  -2.185825684   1.362722387
