16
charge=0 charge_a=0 charge_b=0 selection_a=1-2 selection_b=3-16 scaling=1.0 benchmark_Eint=-4.798 benchmark_unit=kcal/mol group=XH-P
  H   -0.102356188   0.043547349  -0.627319202
 Br   -1.017267085   0.867266820  -1.393091892
  H   -0.599079281  -3.380840392   1.149679679
  H   -0.426379938  -2.376076243   2.588829898
  H   -1.345978929  -1.784161291   1.194101202
  H    3.027953858   0.179057528   0.201083310
  H    0.838868471   0.965702269   3.149872572
  H    2.019635415   1.620984204   0.384304972
  H    2.972461747   1.047109612   1.742147278
  H   -0.525375146  -0.039458102   2.647129200
  H   -0.153384769   1.457443270   1.791823442
  P    1.087642411  -1.683520371   0.753088315
  C    1.214234924  -0.114444058   1.348386254
  C    2.377359822   0.718384812   0.886667569
  C    0.284389151   0.586769397   2.287648104
  C   -0.472514534  -2.358532456   1.500763139
