16
charge=0 charge_a=0 charge_b=0 selection_a=1-2 selection_b=3-16 scaling=1.5 benchmark_Eint=-1.751 benchmark_unit=kcal/mol group=XH-P
  H   -0.102356188   0.043547349  -0.627319202
 Br   -1.017267085   0.867266820  -1.393091892
  H   -0.004079981  -4.244374252   1.839883438
  H    0.168619362  -3.239610103   3.279033656
  H   -0.750979630  -2.647695151   1.884304960
  H    3.622953158  -0.684476332   0.891287068
  H    1.433867770   0.102168409   3.840076330
  H    2.614634714   0.757450344   1.074508730
  H    3.567461046   0.183575752   2.432351036
  H    0.069624153  -0.902991962   3.337332958
  H    0.441614530   0.593909410   2.482027200
  P    1.682641710  -2.547054231   1.443292074
  C    1.809234224  -0.977977918   2.038590012
  C    2.972359122  -0.145149048   1.576871328
  C    0.879388450  -0.276764463   2.977851862
  C    0.122484766  -3.222066316   2.190966898
