16
charge=0 charge_a=0 charge_b=0 selection_a=1-2 selection_b=3-16 scaling=1.1 benchmark_Eint=-4.564 benchmark_unit=kcal/mol group=XH-P
  H   -0.102356188   0.043547349  -0.627319202
 Br   -1.017267085   0.867266820  -1.393091892
  H   -0.480079421  -3.553547164   1.287720431
  H   -0.307380078  -2.548783015   2.726870650
  H   -1.226979069  -1.956868063   1.332141954
  H    3.146953718   0.006350756   0.339124062
  H    0.957868331   0.792995497   3.287913324
  H    2.138635275   1.448277432   0.522345724
  H    3.091461607   0.874402840   1.880188030
  H   -0.406375286  -0.212164874   2.785169952
  H   -0.034384909   1.284736498   1.929864194
  P    1.206642271  -1.856227143   0.891129067
  C    1.333234784  -0.287150830   1.486427006
  C    2.496359682   0.545678040   1.024708321
  C    0.403389011   0.414062625   2.425688856
  C   -0.353514674  -2.531239228   1.638803891
