8
charge=0 charge_a=0 charge_b=0 selection_a=1-2 selection_b=3-8 scaling=0.95 benchmark_Eint=-3.151 benchmark_unit=kcal/mol group=XH-P
  H   -0.337669649   0.185761799   0.000000000
 Br   -0.058551079   1.597089692   0.000000000
  H    2.147124828  -0.609531918   0.000000000
  H    2.441725484  -2.110549024  -0.884014065
  H    2.441725484  -2.110549024   0.884014065
  P   -0.974693602  -2.263241869   0.000000000
  C    0.537592728  -1.962714605   0.000000000
  C    1.963233096  -1.685767416   0.000000000
