8
charge=0 charge_a=0 charge_b=0 selection_a=1-2 selection_b=3-8 scaling=1.1 benchmark_Eint=-3.221 benchmark_unit=kcal/mol group=XH-P
  H   -0.337669649   0.185761799   0.000000000
 Br   -0.058551079   1.597089692   0.000000000
  H    2.046542098  -0.996216708   0.000000000
  H    2.341142755  -2.497233814  -0.884014065
  H    2.341142755  -2.497233814   0.884014065
  P   -1.075276332  -2.649926659   0.000000000
  C    0.437009999  -2.349399395   0.000000000
  C    1.862650367  -2.072452206   0.000000000
