8
charge=0 charge_a=0 charge_b=0 selection_a=1-2 selection_b=3-8 scaling=0.85 benchmark_Eint=-1.051 benchmark_unit=kcal/mol group=XH-P
  H   -0.337669649   0.185761799   0.000000000
 Br   -0.058551079   1.597089692   0.000000000
  H    2.214179980  -0.351742058   0.000000000
  H    2.508780638  -1.852759164  -0.884014065
  H    2.508780638  -1.852759164   0.884014065
  P   -0.907638450  -2.005452009   0.000000000
  C    0.604647882  -1.704924745   0.000000000
  C    2.030288250  -1.427977556   0.000000000
