6
charge=0 charge_a=0 charge_b=0 selection_a=1-2 selection_b=3-6 scaling=0.85 benchmark_Eint=-0.832 benchmark_unit=kcal/mol group=XH-P
  H    0.000000003   0.241145066   0.000000000
 Br    0.000000014  -1.201897006   0.000000000
  P   -0.000000028   2.345527321   0.000000000
  H   -0.601940335   3.087046805  -1.042591202
  H   -0.601940335   3.087046805   1.042591202
  H    1.203880610   3.087046815   0.000000000
