6
charge=0 charge_a=0 charge_b=0 selection_a=1-2 selection_b=3-6 scaling=0.8 benchmark_Eint=1.171 benchmark_unit=kcal/mol group=XH-P
  H    0.000000003   0.241145066   0.000000000
 Br    0.000000014  -1.201897006   0.000000000
  P   -0.000000027   2.221740129   0.000000000
  H   -0.601940334   2.963259613  -1.042591202
  H   -0.601940334   2.963259613   1.042591202
  H    1.203880611   2.963259623   0.000000000
