13
charge=0 charge_a=0 charge_b=0 selection_a=1-2 selection_b=3-13 scaling=1.0 benchmark_Eint=-3.258 benchmark_unit=kcal/mol group=XH-P
  H   -0.000000000   0.000000000  -1.468387165
 Br   -0.000000000   0.000000000  -2.910894635
  H    0.000000000  -2.327998980   1.661834783
  H    0.000000000   2.327998980   1.661834783
  C    0.000000000  -1.221858385   3.477473994
  C    0.000000000  -1.336254300   2.095662783
  P    0.000000000   0.000000000   0.998231963
  C    0.000000000   1.336254300   2.095662783
  C    0.000000000   1.221858385   3.477473994
  C    0.000000000   0.000000000   4.142193751
  H    0.000000000   2.126642665   4.072419705
  H    0.000000000   0.000000000   5.223114503
  H    0.000000000  -2.126642665   4.072419705
