13
charge=0 charge_a=0 charge_b=0 selection_a=1-2 selection_b=3-13 scaling=0.95 benchmark_Eint=-2.982 benchmark_unit=kcal/mol group=XH-P
  H   -0.000000000   0.000000000  -1.468387165
 Br   -0.000000000   0.000000000  -2.910894635
  H    0.000000000  -2.327998980   1.538503827
  H   -0.000000000   2.327998980   1.538503827
  C    0.000000000  -1.221858385   3.354143038
  C    0.000000000  -1.336254300   1.972331827
  P   -0.000000000   0.000000000   0.874901007
  C   -0.000000000   1.336254300   1.972331827
  C   -0.000000000   1.221858385   3.354143038
  C   -0.000000000   0.000000000   4.018862795
  H   -0.000000000   2.126642665   3.949088749
  H   -0.000000000   0.000000000   5.099783547
  H    0.000000000  -2.126642665   3.949088749
