13
charge=0 charge_a=0 charge_b=0 selection_a=1-2 selection_b=3-13 scaling=1.1 benchmark_Eint=-3.184 benchmark_unit=kcal/mol group=XH-P
  H   -0.000000000   0.000000000  -1.468387165
 Br   -0.000000000   0.000000000  -2.910894635
  H    0.000000000  -2.327998980   1.908496696
  H    0.000000000   2.327998980   1.908496696
  C    0.000000000  -1.221858385   3.724135907
  C    0.000000000  -1.336254300   2.342324696
  P    0.000000000   0.000000000   1.244893876
  C    0.000000000   1.336254300   2.342324696
  C    0.000000000   1.221858385   3.724135907
  C    0.000000000   0.000000000   4.388855664
  H    0.000000000   2.126642665   4.319081618
  H    0.000000000   0.000000000   5.469776416
  H    0.000000000  -2.126642665   4.319081618
