15
charge=0 charge_a=0 charge_b=0 selection_a=1-2 selection_b=3-15 scaling=0.85 benchmark_Eint=-4.940 benchmark_unit=kcal/mol group=XH-P
  H    0.000005849  -0.520678153   0.000000000
 Br   -0.000054595  -2.022146666   0.000000000
  H   -1.865108799   1.788552009  -1.469454914
  H   -0.340035223   1.788584189  -2.350012174
  H   -0.779970796   3.187859581  -1.350936644
  H   -1.865108799   1.788552009   1.469454914
  H   -0.779970796   3.187859581   1.350936644
  H   -0.340035223   1.788584189   2.350012174
  H    2.205244301   1.788610028  -0.880516280
  H    2.205244301   1.788610028   0.880516280
  H    1.559986050   3.187888941   0.000000000
  P    0.000062094   1.285049381   0.000000000
  C   -0.822963020   2.100556487  -1.425457210
  C   -0.822963020   2.100556487   1.425457210
  C    1.646040838   2.100587711   0.000000000
