15
charge=0 charge_a=0 charge_b=0 selection_a=1-2 selection_b=3-15 scaling=2.0 benchmark_Eint=-1.404 benchmark_unit=kcal/mol group=XH-P
  H    0.000005849  -0.520678153   0.000000000
 Br   -0.000054595  -2.022146666   0.000000000
  H   -1.865032702   4.231595143  -1.469454914
  H   -0.339959126   4.231627323  -2.350012174
  H   -0.779894699   5.630902715  -1.350936644
  H   -1.865032702   4.231595143   1.469454914
  H   -0.779894699   5.630902715   1.350936644
  H   -0.339959126   4.231627323   2.350012174
  H    2.205320398   4.231653162  -0.880516280
  H    2.205320398   4.231653162   0.880516280
  H    1.560062147   5.630932075   0.000000000
  P    0.000138191   3.728092515   0.000000000
  C   -0.822886923   4.543599621  -1.425457210
  C   -0.822886923   4.543599621   1.425457210
  C    1.646116935   4.543630845   0.000000000
