18
charge=0 charge_a=0 charge_b=0 selection_a=1-2 selection_b=3-18 scaling=1.05 benchmark_Eint=-6.238 benchmark_unit=kcal/mol group=XH-P
  H   -0.336905209   0.591160381  -0.639175257
 Br   -0.276912732   0.441172872  -2.106890034
  H    2.351976645   3.009850259   2.049129121
  H    1.250003142   2.809377909   0.670916656
  H    0.690423492   3.633872751   2.146316585
  H   -3.513983805   2.000316175   2.487548518
  H    0.305907843  -2.542107912   2.547147739
  H   -3.002841722   1.076313802   1.059460638
  H   -3.176017238   0.261122484   2.632478869
  H    0.648092658  -1.701657378   1.020319304
  O   -0.247474105  -0.582998198   2.544789613
  P   -0.326780915   0.790775638   1.701397865
  O    0.931304625   1.579835711   2.333046054
  C    1.320477494   2.834502709   1.759451849
  O   -1.535142676   1.524570664   2.480561254
  C   -2.885190624   1.186969212   2.138671193
  C    0.650798397  -1.611240844   2.107640161
  H    1.661076456  -1.395624507   2.451713896
