18
charge=0 charge_a=0 charge_b=0 selection_a=1-2 selection_b=3-18 scaling=1.1 benchmark_Eint=-6.051 benchmark_unit=kcal/mol group=XH-P
  H   -0.336905209   0.591160381  -0.639175257
 Br   -0.276912732   0.441172872  -2.106890034
  H    2.352458754   3.019355748   2.160584984
  H    1.250485252   2.818883398   0.782372519
  H    0.690905602   3.643378240   2.257772448
  H   -3.513501696   2.009821664   2.599004381
  H    0.306389952  -2.532602423   2.658603602
  H   -3.002359612   1.085819291   1.170916501
  H   -3.175535128   0.270627973   2.743934732
  H    0.648574768  -1.692151889   1.131775167
  O   -0.246991996  -0.573492709   2.656245476
  P   -0.326298806   0.800281127   1.812853728
  O    0.931786734   1.589341200   2.444501917
  C    1.320959604   2.844008198   1.870907712
  O   -1.534660566   1.534076153   2.592017117
  C   -2.884708514   1.196474701   2.250127056
  C    0.651280506  -1.601735355   2.219096024
  H    1.661558566  -1.386119018   2.563169759
