18
charge=0 charge_a=0 charge_b=0 selection_a=1-2 selection_b=3-18 scaling=1.0 benchmark_Eint=-6.212 benchmark_unit=kcal/mol group=XH-P
  H   -0.336905209   0.591160381  -0.639175257
 Br   -0.276912732   0.441172872  -2.106890034
  H    2.351494536   3.000344771   1.937673258
  H    1.249521033   2.799872421   0.559460793
  H    0.689941383   3.624367263   2.034860722
  H   -3.514465914   1.990810687   2.376092655
  H    0.305425734  -2.551613400   2.435691876
  H   -3.003323831   1.066808314   0.948004775
  H   -3.176499347   0.251616996   2.521023006
  H    0.647610549  -1.711162866   0.908863441
  O   -0.247956214  -0.592503686   2.433333750
  P   -0.327263024   0.781270150   1.589942002
  O    0.930822516   1.570330223   2.221590191
  C    1.319995385   2.824997221   1.647995986
  O   -1.535624785   1.515065176   2.369105391
  C   -2.885672733   1.177463724   2.027215330
  C    0.650316288  -1.620746332   1.996184298
  H    1.660594347  -1.405129995   2.340258033
