18
charge=0 charge_a=0 charge_b=0 selection_a=1-2 selection_b=3-18 scaling=0.85 benchmark_Eint=-3.497 benchmark_unit=kcal/mol group=XH-P
  H   -0.336905209   0.591160381  -0.639175257
 Br   -0.276912732   0.441172872  -2.106890034
  H    2.350048208   2.971828306   1.603305669
  H    1.248074705   2.771355956   0.225093204
  H    0.688495055   3.595850798   1.700493133
  H   -3.515912242   1.962294222   2.041725066
  H    0.303979406  -2.580129865   2.101324287
  H   -3.004770159   1.038291849   0.613637186
  H   -3.177945675   0.223100531   2.186655417
  H    0.646164221  -1.739679331   0.574495852
  O   -0.249402542  -0.621020151   2.098966161
  P   -0.328709352   0.752753685   1.255574413
  O    0.929376188   1.541813758   1.887222602
  C    1.318549057   2.796480756   1.313628397
  O   -1.537071113   1.486548711   2.034737802
  C   -2.887119061   1.148947259   1.692847741
  C    0.648869960  -1.649262797   1.661816709
  H    1.659148019  -1.433646460   2.005890444
