18
charge=0 charge_a=0 charge_b=0 selection_a=1-2 selection_b=3-18 scaling=2.0 benchmark_Eint=-0.907 benchmark_unit=kcal/mol group=XH-P
  H   -0.336905209   0.591160381  -0.639175257
 Br   -0.276912732   0.441172872  -2.106890034
  H    2.361136721   3.190454540   4.166790517
  H    1.259163218   2.989982190   2.788578052
  H    0.699583568   3.814477032   4.263977981
  H   -3.504823729   2.180920456   4.605209914
  H    0.315067919  -2.361503631   4.664809135
  H   -2.993681646   1.256918083   3.177122034
  H   -3.166857162   0.441726765   4.750140265
  H    0.657252734  -1.521053097   3.137980700
  O   -0.238314029  -0.402393917   4.662451009
  P   -0.317620839   0.971379919   3.819059261
  O    0.940464701   1.760439992   4.450707450
  C    1.329637570   3.015106990   3.877113245
  O   -1.525982600   1.705174945   4.598222650
  C   -2.876030548   1.367573493   4.256332589
  C    0.659958473  -1.430636563   4.225301557
  H    1.670236532  -1.215020226   4.569375292
