6
charge=0 charge_a=0 charge_b=0 selection_a=1-2 selection_b=3-6 scaling=1.05 benchmark_Eint=-2.041 benchmark_unit=kcal/mol group=XH-P
  H    0.270599856   0.207966649  -1.311285943
 Br    0.722742179  -0.587188535  -2.409727359
  P   -0.159343198  -1.295775861   1.915386851
  P    0.619415787   0.726110089   1.534687950
  P   -1.475081196   0.224841380   1.023242453
  P   -0.863255631   0.408857901   3.127420452
