6
charge=0 charge_a=0 charge_b=0 selection_a=1-2 selection_b=3-6 scaling=2.0 benchmark_Eint=-0.136 benchmark_unit=kcal/mol group=XH-P
  H    0.270599856   0.207966649  -1.311285943
 Br    0.722742179  -0.587188535  -2.409727359
  P   -0.844835386  -1.033223113   4.457646511
  P   -0.066076401   0.988662837   4.076947610
  P   -2.160573384   0.487394128   3.565502113
  P   -1.548747819   0.671410649   5.669680112
