6
charge=0 charge_a=0 charge_b=0 selection_a=1-2 selection_b=3-6 scaling=1.0 benchmark_Eint=-2.042 benchmark_unit=kcal/mol group=XH-P
  H    0.270599856   0.207966649  -1.311285943
 Br    0.722742179  -0.587188535  -2.409727359
  P   -0.123264662  -1.309594427   1.781583711
  P    0.655494323   0.712291523   1.400884810
  P   -1.439002660   0.211022814   0.889439313
  P   -0.827177095   0.395039335   2.993617312
