16
charge=0 charge_a=0 charge_b=0 selection_a=1-2 selection_b=3-16 scaling=0.9 benchmark_Eint=-3.208 benchmark_unit=kcal/mol group=XH-P
  H   -1.280522383  -0.338883007   0.492192351
  I   -2.608311835  -0.179879694  -0.458617962
  H    0.392484476   2.245707027   2.481962409
  H   -1.252549708   1.632630509   2.313797458
  H   -0.333016274   1.320406317   3.796457637
  H    0.596401040  -2.765716834   1.227553514
  H   -2.711847254  -1.508692217   2.572073357
  H   -0.208882624  -3.447767857   2.648670972
  H   -1.144169646  -3.080148735   1.209490581
  H   -2.001937306  -0.279767476   3.618177375
  H   -1.813366702  -1.996877612   3.995394849
  P    0.454705108  -0.117128793   1.936604036
  C   -0.599395070  -1.358944541   2.359378923
  C   -0.310921186  -2.734192657   1.827479220
  C   -1.841171422  -1.262243392   3.186882456
  C   -0.263744722   1.408843439   2.713104479
