16
charge=0 charge_a=0 charge_b=0 selection_a=1-2 selection_b=3-16 scaling=1.1 benchmark_Eint=-4.290 benchmark_unit=kcal/mol group=XH-P
  H   -1.280522383  -0.338883007   0.492192351
  I   -2.608311835  -0.179879694  -0.458617962
  H    0.778090586   2.294985741   2.802942783
  H   -0.866943600   1.681909223   2.634777832
  H    0.052589836   1.369685031   4.117438011
  H    0.982007150  -2.716438120   1.548533888
  H   -2.326241144  -1.459413503   2.893053731
  H    0.176723484  -3.398489143   2.969651346
  H   -0.758563538  -3.030870021   1.530470955
  H   -1.616331196  -0.230488762   3.939157749
  H   -1.427760592  -1.947598898   4.316375223
  P    0.840311216  -0.067850079   2.257584410
  C   -0.213788962  -1.309665827   2.680359297
  C    0.074684924  -2.684913943   2.148459594
  C   -1.455565312  -1.212964678   3.507862830
  C    0.121861388   1.458122153   3.034084853
