8
charge=0 charge_a=0 charge_b=0 selection_a=1-2 selection_b=3-8 scaling=1.1 benchmark_Eint=-2.832 benchmark_unit=kcal/mol group=XH-P
  H    0.448189295  -0.049944979   0.672237473
  I    1.558561712  -0.541901292  -0.409465742
  H    1.489801555  -0.681744067   3.092041610
  H    0.481737234  -1.313102996   4.398111996
  H    1.250556038   0.270600303   4.560958194
  P   -1.634292345   0.885143404   2.614344226
  C   -0.401361155   0.219938270   3.257374942
  C    0.761932563  -0.406811493   3.858626080
