8
charge=0 charge_a=0 charge_b=0 selection_a=1-2 selection_b=3-8 scaling=1.05 benchmark_Eint=-2.963 benchmark_unit=kcal/mol group=XH-P
  H    0.448189295  -0.049944979   0.672237473
  I    1.558561712  -0.541901292  -0.409465742
  H    1.584459812  -0.724248085   3.003764031
  H    0.576395491  -1.355607014   4.309834417
  H    1.345214295   0.228096285   4.472680615
  P   -1.539634088   0.842639386   2.526066647
  C   -0.306702898   0.177434252   3.169097363
  C    0.856590820  -0.449315511   3.770348501
