8
charge=0 charge_a=0 charge_b=0 selection_a=1-2 selection_b=3-8 scaling=2.0 benchmark_Eint=-0.220 benchmark_unit=kcal/mol group=XH-P
  H    0.448189295  -0.049944979   0.672237473
  I    1.558561712  -0.541901292  -0.409465742
  H   -0.214047059   0.083328246   4.681038045
  H   -1.222111380  -0.548030683   5.987108431
  H   -0.453292576   1.035672616   6.149954629
  P   -3.338140959   1.650215717   4.203340661
  C   -2.105209769   0.985010583   4.846371377
  C   -0.941916051   0.358260820   5.447622515
