6
charge=0 charge_a=0 charge_b=0 selection_a=1-2 selection_b=3-6 scaling=0.8 benchmark_Eint=1.452 benchmark_unit=kcal/mol group=XH-P
  H   -0.000000075   0.857481123  -0.000000000
  I    0.000000184  -0.743998606   0.000000001
  P   -0.000000238   2.961217174  -0.000000002
  H   -0.597250478   3.703272381  -1.034468013
  H   -0.597250478   3.703272376   1.034468013
  H    1.194500754   3.703271928   0.000000000
