6
charge=0 charge_a=0 charge_b=0 selection_a=1-2 selection_b=3-6 scaling=0.95 benchmark_Eint=-1.843 benchmark_unit=kcal/mol group=XH-P
  H   -0.000000075   0.857481123  -0.000000000
  I    0.000000184  -0.743998606   0.000000001
  P   -0.000000269   3.355667684  -0.000000002
  H   -0.597250509   4.097722891  -1.034468013
  H   -0.597250509   4.097722886   1.034468013
  H    1.194500723   4.097722438   0.000000000
