6
charge=0 charge_a=0 charge_b=0 selection_a=1-2 selection_b=3-6 scaling=2.0 benchmark_Eint=-0.270 benchmark_unit=kcal/mol group=XH-P
  H   -0.000000075   0.857481123  -0.000000000
  I    0.000000184  -0.743998606   0.000000001
  P   -0.000000483   6.116821251  -0.000000004
  H   -0.597250723   6.858876458  -1.034468015
  H   -0.597250723   6.858876453   1.034468011
  H    1.194500509   6.858876005  -0.000000002
