6
charge=0 charge_a=0 charge_b=0 selection_a=1-2 selection_b=3-6 scaling=0.85 benchmark_Eint=-0.244 benchmark_unit=kcal/mol group=XH-P
  H   -0.000000075   0.857481123  -0.000000000
  I    0.000000184  -0.743998606   0.000000001
  P   -0.000000248   3.092700677  -0.000000002
  H   -0.597250488   3.834755884  -1.034468013
  H   -0.597250488   3.834755879   1.034468013
  H    1.194500744   3.834755431   0.000000000
