6
charge=0 charge_a=0 charge_b=0 selection_a=1-2 selection_b=3-6 scaling=1.0 benchmark_Eint=-2.106 benchmark_unit=kcal/mol group=XH-P
  H   -0.000000075   0.857481123  -0.000000000
  I    0.000000184  -0.743998606   0.000000001
  P   -0.000000279   3.487151187  -0.000000002
  H   -0.597250519   4.229206394  -1.034468013
  H   -0.597250519   4.229206389   1.034468013
  H    1.194500713   4.229205941   0.000000000
