6
charge=0 charge_a=0 charge_b=0 selection_a=1-2 selection_b=3-6 scaling=1.25 benchmark_Eint=-1.638 benchmark_unit=kcal/mol group=XH-P
  H   -0.000000075   0.857481123  -0.000000000
  I    0.000000184  -0.743998606   0.000000001
  P   -0.000000330   4.144568703  -0.000000002
  H   -0.597250570   4.886623910  -1.034468014
  H   -0.597250570   4.886623905   1.034468012
  H    1.194500662   4.886623457  -0.000000001
