13
charge=0 charge_a=0 charge_b=0 selection_a=1-2 selection_b=3-13 scaling=1.0 benchmark_Eint=-2.615 benchmark_unit=kcal/mol group=XH-P
  H    0.113621135   0.012932231  -0.500806450
  I   -0.206158913   1.113863923  -1.655522928
  H   -0.770292127   1.431707889   1.920849493
  H    0.865746172  -2.746232097   3.154980696
  C   -0.707801545   0.827617656   3.958774591
  C   -0.500053554   0.634307374   2.601679278
  P    0.165849873  -0.798196013   1.896418271
  C    0.439264140  -1.763019776   3.307777199
  C    0.151943418  -1.366148250   4.604818125
  C   -0.396916732  -0.127626980   4.920806972
  H    0.364111804  -2.052061707   5.415621691
  H   -0.589950503   0.102140351   5.959303673
  H   -1.132483602   1.766972916   4.290449167
