13
charge=0 charge_a=0 charge_b=0 selection_a=1-2 selection_b=3-13 scaling=1.05 benchmark_Eint=-2.660 benchmark_unit=kcal/mol group=XH-P
  H    0.113621135   0.012932231  -0.500806450
  I   -0.206158913   1.113863923  -1.655522928
  H   -0.767680690   1.391151477   2.040710729
  H    0.868357609  -2.786788509   3.274841932
  C   -0.705190108   0.787061244   4.078635827
  C   -0.497442117   0.593750962   2.721540514
  P    0.168461310  -0.838752425   2.016279507
  C    0.441875577  -1.803576188   3.427638435
  C    0.154554855  -1.406704662   4.724679361
  C   -0.394305295  -0.168183392   5.040668208
  H    0.366723241  -2.092618119   5.535482927
  H   -0.587339066   0.061583939   6.079164909
  H   -1.129872165   1.726416504   4.410310403
