13
charge=0 charge_a=0 charge_b=0 selection_a=1-2 selection_b=3-13 scaling=0.8 benchmark_Eint=0.875 benchmark_unit=kcal/mol group=XH-P
  H    0.113621135   0.012932231  -0.500806450
  I   -0.206158913   1.113863923  -1.655522928
  H   -0.780737875   1.593933538   1.441404549
  H    0.855300424  -2.584006448   2.675535752
  C   -0.718247293   0.989843305   3.479329647
  C   -0.510499302   0.796533023   2.122234334
  P    0.155404125  -0.635970364   1.416973327
  C    0.428818392  -1.600794127   2.828332255
  C    0.141497670  -1.203922601   4.125373181
  C   -0.407362480   0.034598669   4.441362028
  H    0.353666056  -1.889836058   4.936176747
  H   -0.600396251   0.264366000   5.479858729
  H   -1.142929350   1.929198565   3.811004223
