6
charge=0 charge_a=0 charge_b=0 selection_a=1-2 selection_b=3-6 scaling=1.25 benchmark_Eint=-1.486 benchmark_unit=kcal/mol group=XH-P
  H   -0.239386532   0.462064869  -0.598124371
  I   -0.837109405  -0.511350293  -1.741952413
  P   -1.194570256  -0.882378429   3.155229305
  P   -0.383925122   0.484810541   4.686841984
  P    0.735890995   0.117740461   2.828165903
  P   -1.139125175   1.283258079   2.780181727
