6
charge=0 charge_a=0 charge_b=0 selection_a=1-2 selection_b=3-6 scaling=1.0 benchmark_Eint=-2.312 benchmark_unit=kcal/mol group=XH-P
  H   -0.239386532   0.462064869  -0.598124371
  I   -0.837109405  -0.511350293  -1.741952413
  P   -1.202593910  -0.933030889   2.432452847
  P   -0.391948776   0.434158081   3.964065526
  P    0.727867341   0.067088001   2.105389445
  P   -1.147148829   1.232605619   2.057405269
