6
charge=0 charge_a=0 charge_b=0 selection_a=1-2 selection_b=3-6 scaling=0.9 benchmark_Eint=-1.529 benchmark_unit=kcal/mol group=XH-P
  H   -0.239386532   0.462064869  -0.598124371
  I   -0.837109405  -0.511350293  -1.741952413
  P   -1.205803372  -0.953291873   2.143342264
  P   -0.395158238   0.413897097   3.674954943
  P    0.724657879   0.046827017   1.816278862
  P   -1.150358291   1.212344635   1.768294686
