6
charge=0 charge_a=0 charge_b=0 selection_a=1-2 selection_b=3-6 scaling=0.95 benchmark_Eint=-2.108 benchmark_unit=kcal/mol group=XH-P
  H   -0.239386532   0.462064869  -0.598124371
  I   -0.837109405  -0.511350293  -1.741952413
  P   -1.204198641  -0.943161381   2.287897555
  P   -0.393553507   0.424027589   3.819510234
  P    0.726262610   0.056957509   1.960834153
  P   -1.148753560   1.222475127   1.912849977
