6
charge=0 charge_a=0 charge_b=0 selection_a=1-2 selection_b=3-6 scaling=1.5 benchmark_Eint=-0.670 benchmark_unit=kcal/mol group=XH-P
  H   -0.239386532   0.462064869  -0.598124371
  I   -0.837109405  -0.511350293  -1.741952413
  P   -1.186546602  -0.831725970   3.878005762
  P   -0.375901468   0.535463000   5.409618441
  P    0.743914649   0.168392920   3.550942360
  P   -1.131101521   1.333910538   3.502958184
