13
charge=0 charge_a=0 charge_b=0 selection_a=1-4 selection_b=5-13 scaling=0.9 benchmark_Eint=-2.614 benchmark_unit=kcal/mol group=XH-S
  C   -0.400014521  -2.245398424   0.000000000
  H   -0.887381671  -1.295343225   0.000000000
  C    0.168724755  -3.298162291   0.000000000
  H    0.665624691  -4.235919405   0.000000000
  H    1.417683280   1.420782346   1.357660484
  H    0.925117355  -0.291624392   1.356874356
  H    0.010688351   0.899329072   2.298358228
  H    0.010688351   0.899329072  -2.298358228
  H    0.925117355  -0.291624392  -1.356874356
  H    1.417683280   1.420782346  -1.357660484
  C    0.570888822   0.737586924   1.380780951
  S   -0.554797132   1.064770496   0.000000000
  C    0.570888822   0.737586924  -1.380780951
