13
charge=0 charge_a=0 charge_b=0 selection_a=1-4 selection_b=5-13 scaling=1.25 benchmark_Eint=-2.229 benchmark_unit=kcal/mol group=XH-S
  C   -0.400014521  -2.245398424   0.000000000
  H   -0.887381671  -1.295343225   0.000000000
  C    0.168724755  -3.298162291   0.000000000
  H    0.665624691  -4.235919405   0.000000000
  H    1.547021712   2.338604349   1.357660484
  H    1.054455787   0.626197611   1.356874356
  H    0.140026783   1.817151075   2.298358228
  H    0.140026783   1.817151075  -2.298358228
  H    1.054455787   0.626197611  -1.356874356
  H    1.547021712   2.338604349  -1.357660484
  C    0.700227254   1.655408927   1.380780951
  S   -0.425458700   1.982592499   0.000000000
  C    0.700227254   1.655408927  -1.380780951
