13
charge=0 charge_a=0 charge_b=0 selection_a=1-4 selection_b=5-13 scaling=0.85 benchmark_Eint=-1.335 benchmark_unit=kcal/mol group=XH-S
  C   -0.400014521  -2.245398424   0.000000000
  H   -0.887381671  -1.295343225   0.000000000
  C    0.168724755  -3.298162291   0.000000000
  H    0.665624691  -4.235919405   0.000000000
  H    1.399206361   1.289664917   1.357660484
  H    0.906640436  -0.422741821   1.356874356
  H   -0.007788568   0.768211643   2.298358228
  H   -0.007788568   0.768211643  -2.298358228
  H    0.906640436  -0.422741821  -1.356874356
  H    1.399206361   1.289664917  -1.357660484
  C    0.552411903   0.606469495   1.380780951
  S   -0.573274051   0.933653067   0.000000000
  C    0.552411903   0.606469495  -1.380780951
