13
charge=0 charge_a=0 charge_b=0 selection_a=1-4 selection_b=5-13 scaling=0.95 benchmark_Eint=-3.212 benchmark_unit=kcal/mol group=XH-S
  C   -0.400014521  -2.245398424   0.000000000
  H   -0.887381671  -1.295343225   0.000000000
  C    0.168724755  -3.298162291   0.000000000
  H    0.665624691  -4.235919405   0.000000000
  H    1.436160199   1.551899775   1.357660484
  H    0.943594274  -0.160506963   1.356874356
  H    0.029165270   1.030446501   2.298358228
  H    0.029165270   1.030446501  -2.298358228
  H    0.943594274  -0.160506963  -1.356874356
  H    1.436160199   1.551899775  -1.357660484
  C    0.589365741   0.868704353   1.380780951
  S   -0.536320213   1.195887925   0.000000000
  C    0.589365741   0.868704353  -1.380780951
