10
charge=0 charge_a=0 charge_b=0 selection_a=1-4 selection_b=5-10 scaling=0.9 benchmark_Eint=-1.878 benchmark_unit=kcal/mol group=XH-S
  C    2.106088099   0.342724641  -0.187886324
  H    1.150106433   0.623891613  -0.566455031
  C    3.169792657   0.011916680   0.248503367
  H    4.116618093  -0.276415848   0.631432631
  H   -1.564247091  -1.376600822   1.287857296
  H   -1.018046891   0.216548864   1.825413477
  H    0.144124741  -0.895215700   1.092378981
  H   -1.100094226  -0.857938361  -1.295917637
  C   -0.887365607  -0.555635271   1.071991699
  S   -1.293897017   0.223166233  -0.525671840
