10
charge=0 charge_a=0 charge_b=0 selection_a=1-4 selection_b=5-10 scaling=1.05 benchmark_Eint=-2.515 benchmark_unit=kcal/mol group=XH-S
  C    2.106088099   0.342724641  -0.187886324
  H    1.150106433   0.623891613  -0.566455031
  C    3.169792657   0.011916680   0.248503367
  H    4.116618093  -0.276415848   0.631432631
  H   -1.971580999  -1.443388385   1.294654495
  H   -1.425380799   0.149761301   1.832210676
  H   -0.263209167  -0.962003263   1.099176180
  H   -1.507428134  -0.924725924  -1.289120438
  C   -1.294699515  -0.622422834   1.078788898
  S   -1.701230925   0.156378670  -0.518874641
