10
charge=0 charge_a=0 charge_b=0 selection_a=1-4 selection_b=5-10 scaling=0.8 benchmark_Eint=1.293 benchmark_unit=kcal/mol group=XH-S
  C    2.106088099   0.342724641  -0.187886324
  H    1.150106433   0.623891613  -0.566455031
  C    3.169792657   0.011916680   0.248503367
  H    4.116618093  -0.276415848   0.631432631
  H   -1.292691152  -1.332075780   1.283325831
  H   -0.746490952   0.261073906   1.820882012
  H    0.415680680  -0.850690658   1.087847516
  H   -0.828538287  -0.813413319  -1.300449102
  C   -0.615809668  -0.511110229   1.067460234
  S   -1.022341078   0.267691275  -0.530203305
