17
charge=0 charge_a=0 charge_b=0 selection_a=1-4 selection_b=5-17 scaling=0.85 benchmark_Eint=-1.506 benchmark_unit=kcal/mol group=XH-S
  C    2.590901870  -0.049688619   0.439613382
  H    1.933231894   0.271939257  -0.338583573
  C    3.306090040  -0.417511710   1.325807274
  H    3.947155730  -0.741214569   2.107140957
  H    0.528600029  -1.705313986  -0.428239803
  H   -0.946060119  -1.752146980  -1.403720796
  H   -1.193911726  -2.011691134   1.248932562
  H   -1.509113499   1.784193716   0.326149171
  H   -2.290948904  -0.911234474   0.416857777
  H    0.202739025   1.974833117   0.720399194
  H   -1.302230951   0.378697408   2.279582755
  H    0.313034845  -0.147986581   1.815010188
  S   -0.115945434   0.506862117  -1.184022064
  C   -0.424597281  -1.214059097  -0.616813838
  C   -1.244077575  -1.092284910   0.665220559
  C   -0.676144714   0.101433895   1.431390502
  C   -0.563667329   1.257712137   0.437588474
