17
charge=0 charge_a=0 charge_b=0 selection_a=1-4 selection_b=5-17 scaling=1.1 benchmark_Eint=-3.396 benchmark_unit=kcal/mol group=XH-S
  C    2.590901870  -0.049688619   0.439613382
  H    1.933231894   0.271939257  -0.338583573
  C    3.306090040  -0.417511710   1.325807274
  H    3.947155730  -0.741214569   2.107140957
  H   -0.074099185  -1.636219028  -0.676898183
  H   -1.548759333  -1.683052022  -1.652379176
  H   -1.796610940  -1.942596176   1.000274182
  H   -2.111812713   1.853288674   0.077490791
  H   -2.893648118  -0.842139516   0.168199397
  H   -0.399960189   2.043928076   0.471740814
  H   -1.904930165   0.447792366   2.030924375
  H   -0.289664369  -0.078891622   1.566351808
  S   -0.718644648   0.575957076  -1.432680444
  C   -1.027296495  -1.144964138  -0.865472218
  C   -1.846776789  -1.023189952   0.416562179
  C   -1.278843928   0.170528854   1.182732122
  C   -1.166366543   1.326807096   0.188930094
