17
charge=0 charge_a=0 charge_b=0 selection_a=1-4 selection_b=5-17 scaling=0.9 benchmark_Eint=-2.814 benchmark_unit=kcal/mol group=XH-S
  C    2.590901870  -0.049688619   0.439613382
  H    1.933231894   0.271939257  -0.338583573
  C    3.306090040  -0.417511710   1.325807274
  H    3.947155730  -0.741214569   2.107140957
  H    0.408060187  -1.691494994  -0.477971479
  H   -1.066599961  -1.738327988  -1.453452472
  H   -1.314451568  -1.997872142   1.199200886
  H   -1.629653341   1.798012708   0.276417495
  H   -2.411488746  -0.897415482   0.367126101
  H    0.082199183   1.988652108   0.670667518
  H   -1.422770793   0.392516400   2.229851079
  H    0.192495003  -0.134167590   1.765278512
  S   -0.236485276   0.520681108  -1.233753740
  C   -0.545137123  -1.200240106  -0.666545514
  C   -1.364617417  -1.078465918   0.615488883
  C   -0.796684556   0.115252886   1.381658826
  C   -0.684207171   1.271531128   0.387856798
