17
charge=0 charge_a=0 charge_b=0 selection_a=1-4 selection_b=5-17 scaling=1.5 benchmark_Eint=-1.308 benchmark_unit=kcal/mol group=XH-S
  C    2.590901870  -0.049688619   0.439613382
  H    1.933231894   0.271939257  -0.338583573
  C    3.306090040  -0.417511710   1.325807274
  H    3.947155730  -0.741214569   2.107140957
  H   -1.038417927  -1.525667094  -1.074751590
  H   -2.513078075  -1.572500088  -2.050232584
  H   -2.760929682  -1.832044242   0.602420774
  H   -3.076131455   1.963840608  -0.320362616
  H   -3.857966860  -0.731587582  -0.229654010
  H   -1.364278931   2.154480010   0.073887406
  H   -2.869248907   0.558344300   1.633070968
  H   -1.253983111   0.031660312   1.168498400
  S   -1.682963390   0.686509010  -1.830533852
  C   -1.991615237  -1.034412204  -1.263325626
  C   -2.811095531  -0.912638018   0.018708772
  C   -2.243162670   0.281080788   0.784878714
  C   -2.130685285   1.437359030  -0.208923314
