17
charge=0 charge_a=0 charge_b=0 selection_a=1-4 selection_b=5-17 scaling=2.0 benchmark_Eint=-0.378 benchmark_unit=kcal/mol group=XH-S
  C    2.590901870  -0.049688619   0.439613382
  H    1.933231894   0.271939257  -0.338583573
  C    3.306090040  -0.417511710   1.325807274
  H    3.947155730  -0.741214569   2.107140957
  H   -2.243816355  -1.387477176  -1.572068350
  H   -3.718476503  -1.434310170  -2.547549343
  H   -3.966328110  -1.693854324   0.105104015
  H   -4.281529883   2.102030526  -0.817679376
  H   -5.063365288  -0.593397664  -0.726970770
  H   -2.569677359   2.292669927  -0.423429353
  H   -4.074647335   0.696534218   1.135754208
  H   -2.459381539   0.169850229   0.671181641
  S   -2.888361818   0.824698927  -2.327850611
  C   -3.197013665  -0.896222287  -1.760642385
  C   -4.016493959  -0.774448100  -0.478607988
  C   -3.448561098   0.419270705   0.287561955
  C   -3.336083713   1.575548947  -0.706240073
