14
charge=0 charge_a=0 charge_b=0 selection_a=1-4 selection_b=5-14 scaling=0.9 benchmark_Eint=-1.938 benchmark_unit=kcal/mol group=XH-S
  C   -0.207512111  -2.930116447   0.000000000
  H   -0.707754653  -1.987489218   0.000000000
  C    0.372962374  -3.976609526   0.000000000
  H    0.881372541  -4.908040530   0.000000000
  H   -0.343156735   3.117650436   0.000000000
  H    1.179296363   2.839791302   0.874718892
  H    1.179296363   2.839791302  -0.874718892
  H    1.375774243  -0.820439902   0.000000000
  H    2.200163251   0.486153738  -0.874313666
  C    0.586749557   2.559606080   0.000000000
  C    0.349707438   1.079821664   0.000000000
  S   -1.148533294   0.445077541   0.000000000
  C    1.591310871   0.241803516   0.000000000
  H    2.200163251   0.486153738   0.874313666
