14
charge=0 charge_a=0 charge_b=0 selection_a=1-4 selection_b=5-14 scaling=1.5 benchmark_Eint=-0.990 benchmark_unit=kcal/mol group=XH-S
  C   -0.207512111  -2.930116447   0.000000000
  H   -0.707754653  -1.987489218   0.000000000
  C    0.372962374  -3.976609526   0.000000000
  H    0.881372541  -4.908040530   0.000000000
  H   -0.637009163   4.739361608   0.000000000
  H    0.885443935   4.461502474   0.874718892
  H    0.885443935   4.461502474  -0.874718892
  H    1.081921815   0.801271270   0.000000000
  H    1.906310823   2.107864910  -0.874313666
  C    0.292897129   4.181317252   0.000000000
  C    0.055855010   2.701532836   0.000000000
  S   -1.442385722   2.066788713   0.000000000
  C    1.297458443   1.863514688   0.000000000
  H    1.906310823   2.107864910   0.874313666
