16
charge=0 charge_a=0 charge_b=0 selection_a=1-6 selection_b=7-16 scaling=0.9 benchmark_Eint=-3.567 benchmark_unit=kcal/mol group=XH-S
  H    1.940486267  -0.283115224   0.300030058
  H    2.708863969  -1.749668363  -0.336337555
  H    2.516972904  -1.549962215   1.410513582
  H   -0.192566552  -1.511881301   1.210909740
  C    2.064396876  -1.352345009   0.443442504
  S    0.467942356  -2.216271910   0.280464902
  H   -2.451446047   0.383232808   0.290228548
  H   -2.509410533   0.839708451  -1.425940635
  H   -1.867539340  -0.726974687  -0.972467507
  H    1.194175302   1.315386322  -1.765058446
  H    0.417630533  -0.254830534  -2.066541197
  C   -1.931205011   0.317597121  -0.659196691
  C   -0.553302793   0.898343684  -0.581368307
  S    0.041963215   1.564789286   0.778714690
  C    0.242476500   0.801359513  -1.845682815
  H   -0.325403225   1.208333353  -2.685437284
