16
charge=0 charge_a=0 charge_b=0 selection_a=1-6 selection_b=7-16 scaling=0.85 benchmark_Eint=-2.416 benchmark_unit=kcal/mol group=XH-S
  H    1.940486267  -0.283115224   0.300030058
  H    2.708863969  -1.749668363  -0.336337555
  H    2.516972904  -1.549962215   1.410513582
  H   -0.192566552  -1.511881301   1.210909740
  C    2.064396876  -1.352345009   0.443442504
  S    0.467942356  -2.216271910   0.280464902
  H   -2.345972544   0.280571446   0.263634957
  H   -2.403937030   0.737047089  -1.452534226
  H   -1.762065837  -0.829636049  -0.999061098
  H    1.299648805   1.212724960  -1.791652037
  H    0.523104036  -0.357491896  -2.093134788
  C   -1.825731508   0.214935759  -0.685790282
  C   -0.447829290   0.795682322  -0.607961898
  S    0.147436718   1.462127924   0.752121099
  C    0.347950003   0.698698151  -1.872276406
  H   -0.219929722   1.105671991  -2.712030875
