16
charge=0 charge_a=0 charge_b=0 selection_a=1-6 selection_b=7-16 scaling=1.5 benchmark_Eint=-1.561 benchmark_unit=kcal/mol group=XH-S
  H    1.940486267  -0.283115224   0.300030058
  H    2.708863969  -1.749668363  -0.336337555
  H    2.516972904  -1.549962215   1.410513582
  H   -0.192566552  -1.511881301   1.210909740
  C    2.064396876  -1.352345009   0.443442504
  S    0.467942356  -2.216271910   0.280464902
  H   -3.717128082   1.615169148   0.609351636
  H   -3.775092568   2.071644790  -1.106817548
  H   -3.133221375   0.504961652  -0.653344420
  H   -0.071506733   2.547322662  -1.445935358
  H   -0.848051502   0.977105806  -1.747418110
  C   -3.196887046   1.549533460  -0.340073604
  C   -1.818984828   2.130280024  -0.262245220
  S   -1.223718820   2.796725626   1.097837778
  C   -1.023205535   2.033295852  -1.526559728
  H   -1.591085260   2.440269692  -2.366314196
