12
charge=0 charge_a=0 charge_b=0 selection_a=1-6 selection_b=7-12 scaling=0.9 benchmark_Eint=-2.522 benchmark_unit=kcal/mol group=XH-S
  H    0.389332314   2.344045487  -1.681806636
  H   -1.199874482   1.759198382  -2.182546842
  H    0.102187467   0.605834913  -1.868648370
  P   -1.170584739   1.341958558   1.328922668
  C   -0.748470102   1.455338816  -0.148161286
  C   -0.343502892   1.547672902  -1.539721749
  H    1.776637016   0.207826888   0.063326465
  H    2.820063132  -1.211579143  -0.128439275
  H    1.747480221  -1.093207497   1.273708650
  H   -0.472662772  -1.159946736  -0.230585691
  C    1.849925762  -0.864383912   0.217102944
  S    0.603216277  -1.754720833  -0.768969286
