13
charge=0 charge_a=0 charge_b=0 selection_a=1-4 selection_b=5-13 scaling=0.9 benchmark_Eint=-2.306 benchmark_unit=kcal/mol group=XH-S
  N   -1.733551409  -2.373939657   0.819831893
  H   -2.471722105  -2.472562406   1.505112417
  H   -1.779532317  -1.428672868   0.455517229
  H   -1.951459001  -2.998675792   0.053884877
  H    0.576523426   0.161657904   1.901315682
  H    1.943593481  -0.343370575   0.876862264
  H    0.605967600  -1.469705952   1.217834800
  H   -0.117289290   2.285259056  -1.327373312
  H    1.463232219   1.973877469  -0.593360694
  H    0.058420756   2.347583160   0.434043538
  C    0.870673225  -0.431351395   1.036903000
  S   -0.048562649   0.087220015  -0.434494908
  C    0.389257794   1.843773304  -0.472537332
