13
charge=0 charge_a=0 charge_b=0 selection_a=1-4 selection_b=5-13 scaling=1.25 benchmark_Eint=-1.876 benchmark_unit=kcal/mol group=XH-S
  N   -1.733551409  -2.373939657   0.819831893
  H   -2.471722105  -2.472562406   1.505112417
  H   -1.779532317  -1.428672868   0.455517229
  H   -1.951459001  -2.998675792   0.053884877
  H    1.249678297   0.751171804   1.555199850
  H    2.616748352   0.246143324   0.530746432
  H    1.279122471  -0.880192052   0.871718969
  H    0.555865581   2.874772956  -1.673489143
  H    2.136387090   2.563391368  -0.939476525
  H    0.731575627   2.937097060   0.087927706
  C    1.543828096   0.158162504   0.690787169
  S    0.624592222   0.676733914  -0.780610740
  C    1.062412665   2.433287204  -0.818653164
