13
charge=0 charge_a=0 charge_b=0 selection_a=1-4 selection_b=5-13 scaling=0.95 benchmark_Eint=-2.795 benchmark_unit=kcal/mol group=XH-S
  N   -1.733551409  -2.373939657   0.819831893
  H   -2.471722105  -2.472562406   1.505112417
  H   -1.779532317  -1.428672868   0.455517229
  H   -1.951459001  -2.998675792   0.053884877
  H    0.672688407   0.245874176   1.851870563
  H    2.039758462  -0.259154303   0.827417145
  H    0.702132581  -1.385489680   1.168389682
  H   -0.021124309   2.369475328  -1.376818430
  H    1.559397200   2.058093741  -0.642805812
  H    0.154585737   2.431799432   0.384598419
  C    0.966838206  -0.347135123   0.987457882
  S    0.047602332   0.171436287  -0.483940027
  C    0.485422775   1.927989576  -0.521982451
