13
charge=0 charge_a=0 charge_b=0 selection_a=1-4 selection_b=5-13 scaling=0.85 benchmark_Eint=-1.214 benchmark_unit=kcal/mol group=XH-S
  N   -1.733551409  -2.373939657   0.819831893
  H   -2.471722105  -2.472562406   1.505112417
  H   -1.779532317  -1.428672868   0.455517229
  H   -1.951459001  -2.998675792   0.053884877
  H    0.480358444   0.077441633   1.950760800
  H    1.847428499  -0.427586846   0.926307382
  H    0.509802618  -1.553922223   1.267279919
  H   -0.213454272   2.201042785  -1.277928193
  H    1.367067237   1.889661198  -0.543915575
  H   -0.037744226   2.263366889   0.483488656
  C    0.774508243  -0.515567666   1.086348119
  S   -0.144727631   0.003003744  -0.385049790
  C    0.293092812   1.759557033  -0.423092214
