13
charge=0 charge_a=0 charge_b=0 selection_a=1-4 selection_b=5-13 scaling=1.5 benchmark_Eint=-0.950 benchmark_unit=kcal/mol group=XH-S
  N   -1.733551409  -2.373939657   0.819831893
  H   -2.471722105  -2.472562406   1.505112417
  H   -1.779532317  -1.428672868   0.455517229
  H   -1.951459001  -2.998675792   0.053884877
  H    1.730503204   1.172253160   1.307974256
  H    3.097573260   0.667224681   0.283520838
  H    1.759947378  -0.459110696   0.624493376
  H    1.036690488   3.295854312  -1.920714736
  H    2.617211998   2.984472725  -1.186702118
  H    1.212400534   3.358178416  -0.159297888
  C    2.024653004   0.579243861   0.443561576
  S    1.105417130   1.097815271  -1.027836334
  C    1.543237572   2.854368560  -1.065878758
