13
charge=0 charge_a=0 charge_b=0 selection_a=1-4 selection_b=5-13 scaling=1.1 benchmark_Eint=-2.635 benchmark_unit=kcal/mol group=XH-S
  N   -1.733551409  -2.373939657   0.819831893
  H   -2.471722105  -2.472562406   1.505112417
  H   -1.779532317  -1.428672868   0.455517229
  H   -1.951459001  -2.998675792   0.053884877
  H    0.961183352   0.498522990   1.703535206
  H    2.328253407  -0.006505489   0.679081788
  H    0.990627526  -1.132840866   1.020054326
  H    0.267370636   2.622124142  -1.525153786
  H    1.847892145   2.310742555  -0.791141168
  H    0.443080682   2.684448246   0.236263062
  C    1.255333151  -0.094486309   0.839122526
  S    0.336097277   0.424085101  -0.632275384
  C    0.773917720   2.180638390  -0.670317808
