17
charge=0 charge_a=0 charge_b=0 selection_a=1-4 selection_b=5-17 scaling=0.9 benchmark_Eint=-3.126 benchmark_unit=kcal/mol group=XH-S
  N   -1.826273154   2.239807298   0.198139076
  H   -1.327536099   1.714979260  -0.515407530
  H   -2.805516664   2.240204757  -0.058491982
  H   -1.508844537   3.199504121   0.143562136
  H   -0.614383837  -2.121476246  -0.238952429
  H   -1.916034851  -0.925853646  -0.254837887
  H   -0.718703187  -1.459844784   2.088194107
  H    0.949541853   1.618043720   0.422491476
  H   -1.050169431   0.221988719   1.657095158
  H    2.258592313   0.591695412  -0.182101572
  H    1.332947119   0.130298102   2.289643929
  H    1.590444690  -1.250187488   1.224203412
  S    0.136366874  -0.017829246  -1.170297934
  C   -0.861077231  -1.079829615  -0.043453311
  C   -0.484096417  -0.666174643   1.378356580
  C    1.007893928  -0.337403224   1.360027007
  C    1.231748271   0.597174857   0.173514462
