17
charge=0 charge_a=0 charge_b=0 selection_a=1-4 selection_b=5-17 scaling=0.95 benchmark_Eint=-3.710 benchmark_unit=kcal/mol group=XH-S
  N   -1.826273154   2.239807298   0.198139076
  H   -1.327536099   1.714979260  -0.515407530
  H   -2.805516664   2.240204757  -0.058491982
  H   -1.508844537   3.199504121   0.143562136
  H   -0.533055894  -2.217743385  -0.275335229
  H   -1.834706908  -1.022120785  -0.291220687
  H   -0.637375244  -1.556111923   2.051811307
  H    1.030869796   1.521776581   0.386108676
  H   -0.968841488   0.125721580   1.620712358
  H    2.339920256   0.495428273  -0.218484372
  H    1.414275062   0.034030963   2.253261129
  H    1.671772633  -1.346454627   1.187820612
  S    0.217694817  -0.114096385  -1.206680734
  C   -0.779749288  -1.176096754  -0.079836111
  C   -0.402768474  -0.762441782   1.341973780
  C    1.089221871  -0.433670363   1.323644207
  C    1.313076214   0.500907718   0.137131662
