17
charge=0 charge_a=0 charge_b=0 selection_a=1-4 selection_b=5-17 scaling=1.05 benchmark_Eint=-3.801 benchmark_unit=kcal/mol group=XH-S
  N   -1.826273154   2.239807298   0.198139076
  H   -1.327536099   1.714979260  -0.515407530
  H   -2.805516664   2.240204757  -0.058491982
  H   -1.508844537   3.199504121   0.143562136
  H   -0.370400008  -2.410277663  -0.348100829
  H   -1.672051022  -1.214655063  -0.363986287
  H   -0.474719358  -1.748646201   1.979045707
  H    1.193525682   1.329242303   0.313343076
  H   -0.806185602  -0.066812698   1.547946758
  H    2.502576142   0.302893995  -0.291249972
  H    1.576930948  -0.158503315   2.180495529
  H    1.834428519  -1.538988905   1.115055012
  S    0.380350703  -0.306630663  -1.279446334
  C   -0.617093402  -1.368631032  -0.152601711
  C   -0.240112588  -0.954976060   1.269208180
  C    1.251877757  -0.626204641   1.250878607
  C    1.475732100   0.308373440   0.064366062
