17
charge=0 charge_a=0 charge_b=0 selection_a=1-4 selection_b=5-17 scaling=0.85 benchmark_Eint=-1.882 benchmark_unit=kcal/mol group=XH-S
  N   -1.826273154   2.239807298   0.198139076
  H   -1.327536099   1.714979260  -0.515407530
  H   -2.805516664   2.240204757  -0.058491982
  H   -1.508844537   3.199504121   0.143562136
  H   -0.695711780  -2.025209106  -0.202569628
  H   -1.997362794  -0.829586506  -0.218455086
  H   -0.800031130  -1.363577644   2.124576908
  H    0.868213910   1.714310860   0.458874277
  H   -1.131497374   0.318255859   1.693477959
  H    2.177264370   0.687962552  -0.145718771
  H    1.251619176   0.226565242   2.326026730
  H    1.509116747  -1.153920348   1.260586213
  S    0.055038931   0.078437894  -1.133915133
  C   -0.942405174  -0.983562475  -0.007070510
  C   -0.565424360  -0.569907503   1.414739381
  C    0.926565985  -0.241136084   1.396409808
  C    1.150420328   0.693441997   0.209897263
