17
charge=0 charge_a=0 charge_b=0 selection_a=1-4 selection_b=5-17 scaling=1.1 benchmark_Eint=-3.580 benchmark_unit=kcal/mol group=XH-S
  N   -1.826273154   2.239807298   0.198139076
  H   -1.327536099   1.714979260  -0.515407530
  H   -2.805516664   2.240204757  -0.058491982
  H   -1.508844537   3.199504121   0.143562136
  H   -0.289072065  -2.506544802  -0.384483629
  H   -1.590723079  -1.310922202  -0.400369087
  H   -0.393391415  -1.844913340   1.942662907
  H    1.274853625   1.232975164   0.276960276
  H   -0.724857659  -0.163079837   1.511563958
  H    2.583904085   0.206626856  -0.327632772
  H    1.658258891  -0.254770454   2.144112729
  H    1.915756462  -1.635256044   1.078672212
  S    0.461678646  -0.402897802  -1.315829134
  C   -0.535765459  -1.464898171  -0.188984511
  C   -0.158784645  -1.051243199   1.232825380
  C    1.333205700  -0.722471780   1.214495807
  C    1.557060043   0.212106301   0.027983262
