17
charge=0 charge_a=0 charge_b=0 selection_a=1-7 selection_b=8-17 scaling=1.25 benchmark_Eint=-2.761 benchmark_unit=kcal/mol group=XH-S
  N   -0.790217001   0.777894132   2.284727780
  H   -1.732243722   0.616818037   2.615539198
  H   -0.855502622   0.991812663   1.296662369
  C   -0.168366313   1.883821797   3.012704430
  H    0.846883454   2.028965168   2.645004931
  H   -0.693458243   2.842246226   2.931788705
  H   -0.095913199   1.627676952   4.069033762
  H   -1.367448165  -2.763492035  -0.902268196
  H   -1.896629893  -1.070970033  -0.814471972
  H   -0.563846746  -1.644621400   0.222439394
  H    2.890233534  -0.423102544  -0.917019290
  H    1.754770449  -0.154180203   0.441249894
  H    2.592401679   1.220254173  -0.311738910
  C   -1.039735997  -1.735993916  -0.749204266
  S    0.141883504  -1.385432726  -2.090201348
  S    0.794998219   0.514193578  -1.683029578
  C    2.145749544   0.242756883  -0.491213616
