17
charge=0 charge_a=0 charge_b=0 selection_a=1-7 selection_b=8-17 scaling=0.8 benchmark_Eint=0.502 benchmark_unit=kcal/mol group=XH-S
  N   -0.790217001   0.777894132   2.284727780
  H   -1.732243722   0.616818037   2.615539198
  H   -0.855502622   0.991812663   1.296662369
  C   -0.168366313   1.883821797   3.012704430
  H    0.846883454   2.028965168   2.645004931
  H   -0.693458243   2.842246226   2.931788705
  H   -0.095913199   1.627676952   4.069033762
  H   -1.961628468  -2.591549164   0.170420906
  H   -2.490810196  -0.899027162   0.258217129
  H   -1.158027049  -1.472678529   1.295128496
  H    2.296053231  -0.251159673   0.155669811
  H    1.160590146   0.017762668   1.513938995
  H    1.998221376   1.392197044   0.760950192
  C   -1.633916300  -1.564051045   0.323484835
  S   -0.452296799  -1.213489855  -1.017512247
  S    0.200817916   0.686136449  -0.610340477
  C    1.551569241   0.414699754   0.581475486
