16
charge=0 charge_a=0 charge_b=0 selection_a=1-7 selection_b=8-16 scaling=0.85 benchmark_Eint=-2.037 benchmark_unit=kcal/mol group=XH-S
  N   -1.192510977   0.467715987   1.696995707
  H   -2.172046535   0.345116477   1.915530748
  H   -1.120999866   0.600682083   0.694198318
  C   -0.645496493   1.624452415   2.404823312
  H    0.409210908   1.732551388   2.153094081
  H   -1.139477257   2.577525758   2.182764643
  H   -0.706044357   1.456787331   3.479787128
  H    2.142443145  -0.880382728  -0.115789334
  H    1.044906465  -0.217131348   1.124727212
  H    1.982850955   0.872104898   0.080645562
  H   -1.517514691  -1.697501028  -1.424002549
  H   -0.970648379  -1.682872976   0.265980824
  H    0.044080110  -2.417766637  -1.002440471
  C    1.450968542  -0.075178149   0.125353333
  S    0.107194370   0.002171899  -1.087927472
  C   -0.651430734  -1.612856989  -0.772095187
