20
charge=0 charge_a=0 charge_b=0 selection_a=1-7 selection_b=8-20 scaling=2.0 benchmark_Eint=-0.475 benchmark_unit=kcal/mol group=XH-S
  N   -0.480235510   2.041996575   1.331835008
  H   -0.981368046   1.229130121   0.988819823
  H   -1.143757311   2.803457648   1.381443726
  C    0.089914250   1.769818472   2.650200439
  H    0.606980775   2.656938880   3.014681462
  H   -0.635234966   1.463992111   3.413467915
  H    0.833834054   0.977680137   2.564313700
  H    0.778737560  -4.642558124  -1.274749300
  H    0.488915498  -3.499948478   0.040243896
  H    2.506967287  -2.988489076  -1.654270607
  H   -0.690481159  -1.146357032  -2.840002265
  H    1.428420874  -1.663984266  -1.201548861
  H   -1.014346893  -2.441403831  -4.005506649
  H    1.524154481  -1.652567270  -3.660559985
  H    1.186536939  -3.382251272  -3.710261061
  S   -1.148185878  -3.249181945  -1.728435603
  C    0.520735355  -3.611684693  -1.040386074
  C    1.479610235  -2.627391842  -1.708012884
  C    1.003625155  -2.463352512  -3.150700155
  C   -0.496871747  -2.188390826  -3.084117803
