20
charge=0 charge_a=0 charge_b=0 selection_a=1-7 selection_b=8-20 scaling=0.95 benchmark_Eint=-4.334 benchmark_unit=kcal/mol group=XH-S
  N   -0.480235510   2.041996575   1.331835008
  H   -0.981368046   1.229130121   0.988819823
  H   -1.143757311   2.803457648   1.381443726
  C    0.089914250   1.769818472   2.650200439
  H    0.606980775   2.656938880   3.014681462
  H   -0.635234966   1.463992111   3.413467915
  H    0.833834054   0.977680137   2.564313700
  H    0.866316922  -2.291444289   0.151809799
  H    0.576494860  -1.148834643   1.466802995
  H    2.594546649  -0.637375241  -0.227711508
  H   -0.602901797   1.204756803  -1.413443166
  H    1.516000236   0.687129569   0.225010238
  H   -0.926767531  -0.090289996  -2.578947550
  H    1.611733843   0.698546565  -2.234000886
  H    1.274116301  -1.031137437  -2.283701962
  S   -1.060606516  -0.898068110  -0.301876504
  C    0.608314717  -1.260570858   0.386173025
  C    1.567189597  -0.276278007  -0.281453785
  C    1.091204517  -0.112238677  -1.724141056
  C   -0.409292385   0.162723009  -1.657558704
