20
charge=0 charge_a=0 charge_b=0 selection_a=1-7 selection_b=8-20 scaling=0.9 benchmark_Eint=-3.666 benchmark_unit=kcal/mol group=XH-S
  N   -0.480235510   2.041996575   1.331835008
  H   -0.981368046   1.229130121   0.988819823
  H   -1.143757311   2.803457648   1.381443726
  C    0.089914250   1.769818472   2.650200439
  H    0.606980775   2.656938880   3.014681462
  H   -0.635234966   1.463992111   3.413467915
  H    0.833834054   0.977680137   2.564313700
  H    0.870487368  -2.179486488   0.219741184
  H    0.580665306  -1.036876842   1.534734380
  H    2.598717095  -0.525417440  -0.159780123
  H   -0.598731351   1.316714604  -1.345511781
  H    1.520170682   0.799087370   0.292941623
  H   -0.922597085   0.021667805  -2.511016165
  H    1.615904289   0.810504366  -2.166069501
  H    1.278286747  -0.919179636  -2.215770577
  S   -1.056436070  -0.786110309  -0.233945119
  C    0.612485163  -1.148613057   0.454104410
  C    1.571360043  -0.164320206  -0.213522400
  C    1.095374963  -0.000280876  -1.656209671
  C   -0.405121939   0.274680810  -1.589627319
