20
charge=0 charge_a=0 charge_b=0 selection_a=1-7 selection_b=8-20 scaling=0.85 benchmark_Eint=-2.210 benchmark_unit=kcal/mol group=XH-S
  N   -0.480235510   2.041996575   1.331835008
  H   -0.981368046   1.229130121   0.988819823
  H   -1.143757311   2.803457648   1.381443726
  C    0.089914250   1.769818472   2.650200439
  H    0.606980775   2.656938880   3.014681462
  H   -0.635234966   1.463992111   3.413467915
  H    0.833834054   0.977680137   2.564313700
  H    0.874657813  -2.067528686   0.287672570
  H    0.584835751  -0.924919040   1.602665766
  H    2.602887540  -0.413459638  -0.091848737
  H   -0.594560906   1.428672406  -1.277580395
  H    1.524341127   0.911045172   0.360873009
  H   -0.918426640   0.133625607  -2.443084779
  H    1.620074734   0.922462168  -2.098138115
  H    1.282457192  -0.807221834  -2.147839191
  S   -1.052265625  -0.674152507  -0.166013733
  C    0.616655608  -1.036655255   0.522035796
  C    1.575530488  -0.052362404  -0.145591014
  C    1.099545408   0.111676926  -1.588278285
  C   -0.400951494   0.386638612  -1.521695933
