20
charge=0 charge_a=0 charge_b=0 selection_a=1-7 selection_b=8-20 scaling=1.0 benchmark_Eint=-4.512 benchmark_unit=kcal/mol group=XH-S
  N   -0.480235510   2.041996575   1.331835008
  H   -0.981368046   1.229130121   0.988819823
  H   -1.143757311   2.803457648   1.381443726
  C    0.089914250   1.769818472   2.650200439
  H    0.606980775   2.656938880   3.014681462
  H   -0.635234966   1.463992111   3.413467915
  H    0.833834054   0.977680137   2.564313700
  H    0.862146476  -2.403402091   0.083878413
  H    0.572324414  -1.260792445   1.398871609
  H    2.590376203  -0.749333043  -0.295642894
  H   -0.607072243   1.092799001  -1.481374552
  H    1.511829790   0.575171767   0.157078852
  H   -0.930937977  -0.202247798  -2.646878936
  H    1.607563397   0.586588763  -2.301932272
  H    1.269945855  -1.143095239  -2.351633348
  S   -1.064776962  -1.010025912  -0.369807890
  C    0.604144271  -1.372528660   0.318241639
  C    1.563019151  -0.388235809  -0.349385171
  C    1.087034071  -0.224196479  -1.792072442
  C   -0.413462831   0.050765207  -1.725490090
