22
charge=0 charge_a=0 charge_b=0 selection_a=1-12 selection_b=13-22 scaling=0.95 benchmark_Eint=-4.723 benchmark_unit=kcal/mol group=XH-S
  C   -1.310559713  -0.361907074   2.175254779
  H   -0.763108570   0.574669209   2.281490832
  H   -0.595104310  -1.176587219   2.081303564
  H   -1.911104445  -0.503005427   3.069690111
  C   -2.233518505  -0.244002334   0.978187039
  O   -3.280557531   0.378450966   1.033907718
  N   -1.800280892  -0.871742200  -0.146305804
  H   -0.868737271  -1.253320968  -0.144399634
  C   -2.478263034  -0.733060991  -1.418405672
  H   -3.521764756  -0.502622986  -1.227729181
  H   -2.047967169   0.072277388  -2.017532433
  H   -2.410211256  -1.663603270  -1.978737043
  H    1.908253893   2.941242363  -1.613245163
  H    2.631146396   1.464195907  -2.286927670
  H    3.076915681   2.019348807  -0.650518847
  H    1.653670648  -0.417517823   1.992794289
  H    3.226569380  -0.055371954   1.234273536
  H    2.733295097  -1.738913023   1.492365845
  C    2.275244179   1.942770111  -1.379561152
  S    0.853278238   1.034774037  -0.696628466
  S    1.607907492  -0.847671691  -0.392178488
  C    2.380812256  -0.736624322   1.252717978
