22
charge=0 charge_a=0 charge_b=0 selection_a=1-12 selection_b=13-22 scaling=1.0 benchmark_Eint=-4.946 benchmark_unit=kcal/mol group=XH-S
  C   -1.310559713  -0.361907074   2.175254779
  H   -0.763108570   0.574669209   2.281490832
  H   -0.595104310  -1.176587219   2.081303564
  H   -1.911104445  -0.503005427   3.069690111
  C   -2.233518505  -0.244002334   0.978187039
  O   -3.280557531   0.378450966   1.033907718
  N   -1.800280892  -0.871742200  -0.146305804
  H   -0.868737271  -1.253320968  -0.144399634
  C   -2.478263034  -0.733060991  -1.418405672
  H   -3.521764756  -0.502622986  -1.227729181
  H   -2.047967169   0.072277388  -2.017532433
  H   -2.410211256  -1.663603270  -1.978737043
  H    2.038603617   2.962592325  -1.626286155
  H    2.761496120   1.485545869  -2.299968662
  H    3.207265405   2.040698769  -0.663559839
  H    1.784020372  -0.396167861   1.979753297
  H    3.356919104  -0.034021992   1.221232544
  H    2.863644821  -1.717563061   1.479324853
  C    2.405593903   1.964120073  -1.392602144
  S    0.983627962   1.056123999  -0.709669458
  S    1.738257216  -0.826321729  -0.405219480
  C    2.511161980  -0.715274360   1.239676986
