22
charge=0 charge_a=0 charge_b=0 selection_a=1-12 selection_b=13-22 scaling=2.0 benchmark_Eint=-0.730 benchmark_unit=kcal/mol group=XH-S
  C   -1.310559713  -0.361907074   2.175254779
  H   -0.763108570   0.574669209   2.281490832
  H   -0.595104310  -1.176587219   2.081303564
  H   -1.911104445  -0.503005427   3.069690111
  C   -2.233518505  -0.244002334   0.978187039
  O   -3.280557531   0.378450966   1.033907718
  N   -1.800280892  -0.871742200  -0.146305804
  H   -0.868737271  -1.253320968  -0.144399634
  C   -2.478263034  -0.733060991  -1.418405672
  H   -3.521764756  -0.502622986  -1.227729181
  H   -2.047967169   0.072277388  -2.017532433
  H   -2.410211256  -1.663603270  -1.978737043
  H    4.645598104   3.389591564  -1.887106001
  H    5.368490607   1.912545108  -2.560788508
  H    5.814259892   2.467698008  -0.924379685
  H    4.391014859   0.030831378   1.718933451
  H    5.963913591   0.392977247   0.960412698
  H    5.470639308  -1.290563822   1.218505007
  C    5.012588390   2.391119312  -1.653421990
  S    3.590622449   1.483123238  -0.970489304
  S    4.345251703  -0.399322490  -0.666039326
  C    5.118156467  -0.288275121   0.978857140
