25
charge=0 charge_a=0 charge_b=0 selection_a=1-12 selection_b=13-25 scaling=1.05 benchmark_Eint=-6.197 benchmark_unit=kcal/mol group=XH-S
  C   -2.357909974  -0.530763153   1.513809691
  H   -2.458888135   0.431064781   2.014064114
  H   -1.435641500  -1.012326308   1.832243938
  H   -3.203687290  -1.144676848   1.817474716
  C   -2.435185383  -0.311941800   0.015927019
  O   -3.413586877   0.194331849  -0.508914794
  N   -1.352598404  -0.729166071  -0.688420318
  H   -0.532927623  -1.037959315  -0.184588744
  C   -1.265004923  -0.563272769  -2.123444472
  H   -2.264093859  -0.614295931  -2.546374380
  H   -0.831709133   0.401126684  -2.401752990
  H   -0.653370716  -1.357612024  -2.546241659
  H    1.808688420  -0.526352985  -1.517423382
  H    3.458427436  -0.661723870  -0.904472213
  H    2.558143580   1.763137795  -1.643257413
  H    2.061314728   1.258798020   2.178388520
  H    3.484329510   1.616641939  -0.153072657
  H    0.364635594   0.852698345   1.900967597
  H    1.423362558   2.832309748   0.443949914
  H    0.438644220   1.625199536  -0.376160527
  S    1.842040970  -0.780807954   0.894672713
  C    2.488186232  -0.204761124  -0.731368638
  C    2.558634954   1.319497413  -0.647758075
  C    1.361342138   1.775619335   0.184420221
  C    1.345990618   0.905925467   1.438621854
