25
charge=0 charge_a=0 charge_b=0 selection_a=1-12 selection_b=13-25 scaling=1.25 benchmark_Eint=-4.419 benchmark_unit=kcal/mol group=XH-S
  C   -2.357909974  -0.530763153   1.513809691
  H   -2.458888135   0.431064781   2.014064114
  H   -1.435641500  -1.012326308   1.832243938
  H   -3.203687290  -1.144676848   1.817474716
  C   -2.435185383  -0.311941800   0.015927019
  O   -3.413586877   0.194331849  -0.508914794
  N   -1.352598404  -0.729166071  -0.688420318
  H   -0.532927623  -1.037959315  -0.184588744
  C   -1.265004923  -0.563272769  -2.123444472
  H   -2.264093859  -0.614295931  -2.546374380
  H   -0.831709133   0.401126684  -2.401752990
  H   -0.653370716  -1.357612024  -2.546241659
  H    2.261063390  -0.477371774  -1.311849772
  H    3.910802406  -0.612742658  -0.698898602
  H    3.010518550   1.812119006  -1.437683802
  H    2.513689698   1.307779232   2.383962130
  H    3.936704480   1.665623150   0.052500954
  H    0.817010564   0.901679556   2.106541208
  H    1.875737528   2.881290960   0.649523524
  H    0.891019190   1.674180748  -0.170586916
  S    2.294415940  -0.731826742   1.100246324
  C    2.940561202  -0.155779912  -0.525795028
  C    3.011009924   1.368478624  -0.442184464
  C    1.813717108   1.824600546   0.389993832
  C    1.798365588   0.954906678   1.644195464
