25
charge=0 charge_a=0 charge_b=0 selection_a=1-12 selection_b=13-25 scaling=0.95 benchmark_Eint=-6.076 benchmark_unit=kcal/mol group=XH-S
  C   -2.357909974  -0.530763153   1.513809691
  H   -2.458888135   0.431064781   2.014064114
  H   -1.435641500  -1.012326308   1.832243938
  H   -3.203687290  -1.144676848   1.817474716
  C   -2.435185383  -0.311941800   0.015927019
  O   -3.413586877   0.194331849  -0.508914794
  N   -1.352598404  -0.729166071  -0.688420318
  H   -0.532927623  -1.037959315  -0.184588744
  C   -1.265004923  -0.563272769  -2.123444472
  H   -2.264093859  -0.614295931  -2.546374380
  H   -0.831709133   0.401126684  -2.401752990
  H   -0.653370716  -1.357612024  -2.546241659
  H    1.582500936  -0.550843591  -1.620210188
  H    3.232239952  -0.686214476  -1.007259019
  H    2.331956096   1.738647189  -1.746044219
  H    1.835127244   1.234307414   2.075601714
  H    3.258142024   1.592151333  -0.255859463
  H    0.138448110   0.828207739   1.798180791
  H    1.197175074   2.807819142   0.341163108
  H    0.212456734   1.600708930  -0.478947333
  S    1.615853484  -0.805298560   0.791885907
  C    2.261998748  -0.229251730  -0.834155444
  C    2.332447468   1.295006807  -0.750544881
  C    1.135154652   1.751128729   0.081633415
  C    1.119803134   0.881434861   1.335835048
