18
charge=0 charge_a=0 charge_b=0 selection_a=1-8 selection_b=9-18 scaling=1.0 benchmark_Eint=-6.857 benchmark_unit=kcal/mol group=XH-S
  C    2.511893525  -1.368800800   0.014807431
  O    1.762163028  -1.971481259   0.744422099
  O    2.208385924  -0.181901632  -0.533728587
  H    1.315417067   0.085231385  -0.227681848
  C    3.881118187  -1.838537042  -0.390873648
  H    4.083903431  -2.806771292   0.052927509
  H    3.943693300  -1.902204970  -1.476283934
  H    4.628009781  -1.115239990  -0.066048908
  H   -3.864024261   2.696053474  -0.614944270
  H   -3.102262175   2.592674622   0.986878093
  H   -3.920212866   1.169812075   0.286026882
  H   -1.357468093  -1.481049494  -0.640773473
  H   -2.443367168  -1.273420645   0.762020355
  H   -0.763463269  -1.840391316   0.990670999
  C   -3.319864296   2.049494430   0.072096493
  S   -1.776791685   1.595474048  -0.779838826
  S   -0.783394225   0.488980538   0.634456649
  C   -1.420046734  -1.200116952   0.406048064
