17
charge=0 charge_a=0 charge_b=0 selection_a=1-8 selection_b=9-17 scaling=0.9 benchmark_Eint=-8.176 benchmark_unit=kcal/mol group=XH-S
  C    0.081525635   1.866465309   0.000000000
  O    1.127948263   1.259887573   0.000000000
  O   -1.116126384   1.270400679   0.000000000
  H   -0.994660153   0.288330628   0.000000000
  C   -0.035820766   3.365821424   0.000000000
  H    0.952047988   3.812781931   0.000000000
  H   -0.594014895   3.691400467  -0.876780981
  H   -0.594014895   3.691400467   0.876780981
  H    1.195771045  -2.468256196  -1.379194977
  H    1.137544486  -0.683088201  -1.315483392
  H   -0.036009460  -1.588451554  -2.299403070
  H   -0.036009460  -1.588451554   2.299403070
  H    1.137544486  -0.683088201   1.315483392
  H    1.195771045  -2.468256196   1.379194977
  C    0.548286787  -1.594179455  -1.382642828
  S   -0.621179127  -1.673362163   0.000000000
  C    0.548286787  -1.594179455   1.382642828
