17
charge=0 charge_a=0 charge_b=0 selection_a=1-8 selection_b=9-17 scaling=0.8 benchmark_Eint=-1.874 benchmark_unit=kcal/mol group=XH-S
  C    0.081525635   1.866465309   0.000000000
  O    1.127948263   1.259887573   0.000000000
  O   -1.116126384   1.270400679   0.000000000
  H   -0.994660153   0.288330628   0.000000000
  C   -0.035820766   3.365821424   0.000000000
  H    0.952047988   3.812781931   0.000000000
  H   -0.594014895   3.691400467  -0.876780981
  H   -0.594014895   3.691400467   0.876780981
  H    1.154273153  -2.250290331  -1.379194977
  H    1.096046594  -0.465122336  -1.315483392
  H   -0.077507352  -1.370485689  -2.299403070
  H   -0.077507352  -1.370485689   2.299403070
  H    1.096046594  -0.465122336   1.315483392
  H    1.154273153  -2.250290331   1.379194977
  C    0.506788895  -1.376213590  -1.382642828
  S   -0.662677019  -1.455396298   0.000000000
  C    0.506788895  -1.376213590   1.382642828
