17
charge=0 charge_a=0 charge_b=0 selection_a=1-8 selection_b=9-17 scaling=1.25 benchmark_Eint=-6.879 benchmark_unit=kcal/mol group=XH-S
  C    0.081525635   1.866465309   0.000000000
  O    1.127948263   1.259887573   0.000000000
  O   -1.116126384   1.270400679   0.000000000
  H   -0.994660153   0.288330628   0.000000000
  C   -0.035820766   3.365821424   0.000000000
  H    0.952047988   3.812781931   0.000000000
  H   -0.594014895   3.691400467  -0.876780981
  H   -0.594014895   3.691400467   0.876780981
  H    1.341013666  -3.231136726  -1.379194977
  H    1.282787108  -1.445968731  -1.315483392
  H    0.109233162  -2.351332084  -2.299403070
  H    0.109233162  -2.351332084   2.299403070
  H    1.282787108  -1.445968731   1.315483392
  H    1.341013666  -3.231136726   1.379194977
  C    0.693529408  -2.357059985  -1.382642828
  S   -0.475936506  -2.436242693   0.000000000
  C    0.693529408  -2.357059985   1.382642828
