18
charge=0 charge_a=0 charge_b=0 selection_a=1-8 selection_b=9-18 scaling=1.05 benchmark_Eint=-7.656 benchmark_unit=kcal/mol group=XH-S
  C    0.159201316   2.456646091   0.000000000
  O    1.218853156   1.876182366   0.000000000
  O   -1.025331881   1.833227073   0.000000000
  H   -0.892264099   0.858019475   0.000000000
  C    0.003809343   3.952775178   0.000000000
  H    0.980230339   4.424223398   0.000000000
  H   -0.562174650   4.264126803  -0.876954421
  H   -0.562174650   4.264126803   0.876954421
  H   -0.637115840  -4.266277359   0.000000000
  H    0.905574280  -4.135120533  -0.874412314
  H    0.905574280  -4.135120533   0.874412314
  H    1.457775538  -0.507414048   0.000000000
  H    2.145966467  -1.896136541   0.872920678
  C    0.342174164  -3.800090898   0.000000000
  C    0.255005453  -2.304946277   0.000000000
  S   -1.187446899  -1.543918418   0.000000000
  C    1.564469580  -1.586565729   0.000000000
  H    2.145966467  -1.896136541  -0.872920678
