18
charge=0 charge_a=0 charge_b=0 selection_a=1-8 selection_b=9-18 scaling=1.5 benchmark_Eint=-3.171 benchmark_unit=kcal/mol group=XH-S
  C    0.159201316   2.456646091   0.000000000
  O    1.218853156   1.876182366   0.000000000
  O   -1.025331881   1.833227073   0.000000000
  H   -0.892264099   0.858019475   0.000000000
  C    0.003809343   3.952775178   0.000000000
  H    0.980230339   4.424223398   0.000000000
  H   -0.562174650   4.264126803  -0.876954421
  H   -0.562174650   4.264126803   0.876954421
  H   -0.763622754  -5.295679313   0.000000000
  H    0.779067366  -5.164522487  -0.874412314
  H    0.779067366  -5.164522487   0.874412314
  H    1.331268624  -1.536816002   0.000000000
  H    2.019459553  -2.925538495   0.872920678
  C    0.215667250  -4.829492852   0.000000000
  C    0.128498539  -3.334348231   0.000000000
  S   -1.313953813  -2.573320372   0.000000000
  C    1.437962666  -2.615967683   0.000000000
  H    2.019459553  -2.925538495  -0.872920678
