18
charge=0 charge_a=0 charge_b=0 selection_a=1-8 selection_b=9-18 scaling=2.0 benchmark_Eint=-1.064 benchmark_unit=kcal/mol group=XH-S
  C    0.159201316   2.456646091   0.000000000
  O    1.218853156   1.876182366   0.000000000
  O   -1.025331881   1.833227073   0.000000000
  H   -0.892264099   0.858019475   0.000000000
  C    0.003809343   3.952775178   0.000000000
  H    0.980230339   4.424223398   0.000000000
  H   -0.562174650   4.264126803  -0.876954421
  H   -0.562174650   4.264126803   0.876954421
  H   -0.904185992  -6.439459262   0.000000000
  H    0.638504128  -6.308302436  -0.874412314
  H    0.638504128  -6.308302436   0.874412314
  H    1.190705386  -2.680595951   0.000000000
  H    1.878896315  -4.069318444   0.872920678
  C    0.075104012  -5.973272801   0.000000000
  C   -0.012064699  -4.478128180   0.000000000
  S   -1.454517051  -3.717100321   0.000000000
  C    1.297399428  -3.759747632   0.000000000
  H    1.878896315  -4.069318444  -0.872920678
