8
charge=0 charge_a=0 charge_b=0 selection_a=1-5 selection_b=6-8 scaling=1.05 benchmark_Eint=-7.671 benchmark_unit=kcal/mol group=XH-S
 Br   -0.030254314  -0.999634660   0.000000000
  O    0.761026747  -0.504663159  -1.322598332
  O    0.761026747  -0.504663159   1.322598332
  O   -1.551989949  -0.015483186   0.000000000
  H   -1.249893375   0.926211885   0.000000000
  H    0.843109119   2.287415177   0.967089121
  H    0.843109119   2.287415177  -0.967089121
  S    0.146592726   2.907005905   0.000000000
