16
charge=0 charge_a=0 charge_b=0 selection_a=1-6 selection_b=7-16 scaling=0.8 benchmark_Eint=0.723 benchmark_unit=kcal/mol group=XH-S
  O   -0.429259515   1.229680464  -2.503808256
  H   -0.361560680   1.368907717  -1.551446896
  C   -1.379910912   0.201709207  -2.735171401
  H   -1.418551040   0.035079801  -3.809506665
  H   -1.096776819  -0.735987345  -2.248429738
  H   -2.379847977   0.483346448  -2.392944178
  H   -0.701287051  -2.461013180   2.076918607
  H   -0.235854424  -0.890232693   2.765601200
  H    0.930981069  -1.828632599   1.794879347
  H    1.558733466   0.034755584  -1.623021763
  H    2.372944682  -0.324407821  -0.069059960
  H    2.432341324   1.311851572  -0.753466740
  C   -0.113842536  -1.557741751   1.917868782
  S   -0.771389010  -0.789560334   0.404380810
  S    0.324083672   0.938315626   0.252895673
  C    1.822619541   0.416296181  -0.641729013
