12
charge=0 charge_a=0 charge_b=0 selection_a=1-6 selection_b=7-12 scaling=1.1 benchmark_Eint=-4.190 benchmark_unit=kcal/mol group=XH-S
  O   -1.117655145   0.114307846  -1.550670053
  H   -0.423216579  -0.338451426  -1.053825792
  C   -0.585710661   1.330640392  -2.045922697
  H   -1.387423241   1.844835956  -2.571686638
  H   -0.229752760   1.982642547  -1.241382733
  H    0.236851123   1.165118865  -2.747744707
  H   -0.972482236   0.408413055   1.424823348
  H    0.502338099   1.277757339   1.873355062
  H   -0.160700657   0.072768503   2.983570041
  H    0.286258268  -1.972794334   1.327496186
  C   -0.019239660   0.326589856   1.937728452
  S    1.055777205  -0.895140742   1.112188362
