12
charge=0 charge_a=0 charge_b=0 selection_a=1-6 selection_b=7-12 scaling=0.95 benchmark_Eint=-4.354 benchmark_unit=kcal/mol group=XH-S
  O   -1.117655145   0.114307846  -1.550670053
  H   -0.423216579  -0.338451426  -1.053825792
  C   -0.585710661   1.330640392  -2.045922697
  H   -1.387423241   1.844835956  -2.571686638
  H   -0.229752760   1.982642547  -1.241382733
  H    0.236851123   1.165118865  -2.747744707
  H   -1.174163206   0.484325235   1.129457781
  H    0.300657129   1.353669519   1.577989495
  H   -0.362381627   0.148680683   2.688204474
  H    0.084577298  -1.896882154   1.032130619
  C   -0.220920630   0.402502036   1.642362885
  S    0.854096235  -0.819228562   0.816822795
