9
charge=0 charge_a=0 charge_b=0 selection_a=1-3 selection_b=4-9 scaling=1.0 benchmark_Eint=-4.385 benchmark_unit=kcal/mol group=XH-S
  O   -0.585825351  -1.659854852  -1.573484052
  H   -0.074872883  -1.347975847  -0.812756306
  H   -0.158298207  -2.472368998  -1.852017965
  H   -1.159672257   0.917542655  -0.725459054
  H    0.340054904   1.844930321  -0.838629617
  H   -0.822188071   2.234746308   0.437281282
  H   -0.522502340  -0.130101969   1.665088668
  C   -0.393824308   1.430674326  -0.152870087
  S    0.516461923   0.260420452   0.911586766
