9
charge=0 charge_a=0 charge_b=0 selection_a=1-3 selection_b=4-9 scaling=0.8 benchmark_Eint=0.446 benchmark_unit=kcal/mol group=XH-S
  O   -0.585825351  -1.659854852  -1.573484052
  H   -0.074872883  -1.347975847  -0.812756306
  H   -0.158298207  -2.472368998  -1.852017965
  H   -1.277939218   0.595863395  -1.070327668
  H    0.221787943   1.523251061  -1.183498231
  H   -0.940455032   1.913067048   0.092412668
  H   -0.640769301  -0.451781229   1.320220054
  C   -0.512091269   1.108995066  -0.497738701
  S    0.398194962  -0.061258808   0.566718152
