16
charge=0 charge_a=0 charge_b=0 selection_a=1-6 selection_b=7-16 scaling=1.25 benchmark_Eint=-2.432 benchmark_unit=kcal/mol group=XH-S
  H    1.015540508  -2.064302946  -0.263452316
  H    1.412213480  -3.507907961   0.683306271
  H    2.287767006  -1.999782097   0.978385091
  H    0.092274976  -0.709598095   1.832674891
  C    1.324423996  -2.425038093   0.712776929
  S    0.069414853  -2.045084238   1.979216362
  H   -3.032618754   1.152283527   0.118117511
  H   -1.982030308  -0.174911524  -0.417799709
  H   -2.608512379   1.017496480  -1.598424773
  H    0.207829139   3.370566417  -2.853913846
  H   -0.806893242   2.032044630  -3.454971665
  H    0.929982069   2.058744607  -3.811496632
  C   -2.251234418   0.864091673  -0.584152460
  S   -0.832673204   1.947520631  -0.227427285
  S    0.581325902   1.342749444  -1.581876212
  C    0.171249389   2.307121723  -3.070489369
