16
charge=0 charge_a=0 charge_b=0 selection_a=1-6 selection_b=7-16 scaling=1.05 benchmark_Eint=-3.628 benchmark_unit=kcal/mol group=XH-S
  H    1.015540508  -2.064302946  -0.263452316
  H    1.412213480  -3.507907961   0.683306271
  H    2.287767006  -1.999782097   0.978385091
  H    0.092274976  -0.709598095   1.832674891
  C    1.324423996  -2.425038093   0.712776929
  S    0.069414853  -2.045084238   1.979216362
  H   -2.884627045   0.727144531   0.447733859
  H   -1.834038599  -0.600050520  -0.088183361
  H   -2.460520670   0.592357484  -1.268808425
  H    0.355820848   2.945427421  -2.524297498
  H   -0.658901533   1.606905634  -3.125355317
  H    1.077973778   1.633605611  -3.481880284
  C   -2.103242709   0.438952677  -0.254536112
  S   -0.684681495   1.522381635   0.102189063
  S    0.729317611   0.917610448  -1.252259864
  C    0.319241098   1.881982727  -2.740873021
