16
charge=0 charge_a=0 charge_b=0 selection_a=1-6 selection_b=7-16 scaling=1.1 benchmark_Eint=-3.399 benchmark_unit=kcal/mol group=XH-S
  H    1.015540508  -2.064302946  -0.263452316
  H    1.412213480  -3.507907961   0.683306271
  H    2.287767006  -1.999782097   0.978385091
  H    0.092274976  -0.709598095   1.832674891
  C    1.324423996  -2.425038093   0.712776929
  S    0.069414853  -2.045084238   1.979216362
  H   -2.921624972   0.833429280   0.365329772
  H   -1.871036526  -0.493765771  -0.170587448
  H   -2.497518597   0.698642233  -1.351212512
  H    0.318822921   3.051712170  -2.606701585
  H   -0.695899460   1.713190383  -3.207759404
  H    1.040975851   1.739890360  -3.564284371
  C   -2.140240636   0.545237426  -0.336940199
  S   -0.721679422   1.628666384   0.019784976
  S    0.692319684   1.023895197  -1.334663951
  C    0.282243171   1.988267476  -2.823277108
