15
charge=0 charge_a=0 charge_b=0 selection_a=1-6 selection_b=7-15 scaling=0.85 benchmark_Eint=-1.609 benchmark_unit=kcal/mol group=XH-S
  H    2.306558995  -2.057896803  -0.649523013
  H    3.320314379  -1.474712517   0.676413050
  H    2.523071192  -0.310830242  -0.388825854
  H    0.070026329  -1.019936544   0.360230349
  C    2.422497640  -1.277517784   0.096840229
  S    1.028657842  -1.283773896   1.270938462
  H    0.877940094   1.271494095   0.245847471
  H   -0.034868655   2.550135180  -0.597473421
  H    0.979996409   1.430503288  -1.519811239
  H   -2.827764937   0.029694526   0.638087679
  H   -2.303831031   1.721308772   0.675978047
  H   -1.342969330   0.470300219   1.502566923
  C    0.325042574   1.524873348  -0.657103560
  S   -1.051598730   0.373277393  -0.897936503
  C   -1.963145754   0.688636023   0.634724239
