15
charge=0 charge_a=0 charge_b=0 selection_a=1-6 selection_b=7-15 scaling=0.9 benchmark_Eint=-2.975 benchmark_unit=kcal/mol group=XH-S
  H    2.306558995  -2.057896803  -0.649523013
  H    3.320314379  -1.474712517   0.676413050
  H    2.523071192  -0.310830242  -0.388825854
  H    0.070026329  -1.019936544   0.360230349
  C    2.422497640  -1.277517784   0.096840229
  S    1.028657842  -1.283773896   1.270938462
  H    0.811962149   1.353447856   0.171837656
  H   -0.100846600   2.632088941  -0.671483236
  H    0.914018464   1.512457049  -1.593821054
  H   -2.893742882   0.111648287   0.564077864
  H   -2.369808976   1.803262533   0.601968232
  H   -1.408947275   0.552253980   1.428557108
  C    0.259064629   1.606827109  -0.731113375
  S   -1.117576675   0.455231154  -0.971946318
  C   -2.029123699   0.770589784   0.560714424
