15
charge=0 charge_a=0 charge_b=0 selection_a=1-6 selection_b=7-15 scaling=1.25 benchmark_Eint=-2.632 benchmark_unit=kcal/mol group=XH-S
  H    2.306558995  -2.057896803  -0.649523013
  H    3.320314379  -1.474712517   0.676413050
  H    2.523071192  -0.310830242  -0.388825854
  H    0.070026329  -1.019936544   0.360230349
  C    2.422497640  -1.277517784   0.096840229
  S    1.028657842  -1.283773896   1.270938462
  H    0.350116537   1.927124183  -0.346231048
  H   -0.562692212   3.205765268  -1.189551940
  H    0.452172852   2.086133376  -2.111889758
  H   -3.355588494   0.685324614   0.046009160
  H   -2.831654588   2.376938860   0.083899528
  H   -1.870792887   1.125930307   0.910488404
  C   -0.202780983   2.180503436  -1.249182079
  S   -1.579422287   1.028907481  -1.490015022
  C   -2.490969311   1.344266111   0.042645720
