15
charge=0 charge_a=0 charge_b=0 selection_a=1-6 selection_b=7-15 scaling=1.5 benchmark_Eint=-1.354 benchmark_unit=kcal/mol group=XH-S
  H    2.306558995  -2.057896803  -0.649523013
  H    3.320314379  -1.474712517   0.676413050
  H    2.523071192  -0.310830242  -0.388825854
  H    0.070026329  -1.019936544   0.360230349
  C    2.422497640  -1.277517784   0.096840229
  S    1.028657842  -1.283773896   1.270938462
  H    0.020226813   2.336892988  -0.716280122
  H   -0.892581936   3.615534073  -1.559601014
  H    0.122283128   2.495902181  -2.481938832
  H   -3.685478218   1.095093419  -0.324039914
  H   -3.161544312   2.786707665  -0.286149546
  H   -2.200682610   1.535699112   0.540439330
  C   -0.532670706   2.590272241  -1.619231154
  S   -1.909312010   1.438676286  -1.860064096
  C   -2.820859034   1.754034916  -0.327403354
