12
charge=0 charge_a=0 charge_b=0 selection_a=1-6 selection_b=7-12 scaling=1.05 benchmark_Eint=-2.925 benchmark_unit=kcal/mol group=XH-S
  H    1.488411113  -0.839329770  -0.946998750
  H    2.603013228  -1.844008641  -0.015336080
  H    2.559788359  -0.100175654   0.268668478
  H    0.078774260  -0.119560383   1.214778309
  C    1.957669280  -0.970558599   0.024694512
  S    0.719917690  -1.297094746   1.320350134
  H   -1.623917276   0.267424198  -2.551632400
  H   -2.693816527   0.199761848  -1.147108677
  H   -1.146157805  -0.649776756  -1.091039700
  H    0.262431879   1.661232251  -1.297966056
  C   -1.655700045   0.233098375  -1.466929795
  S   -0.955374890   1.752639740  -0.743582706
