12
charge=0 charge_a=0 charge_b=0 selection_a=1-6 selection_b=7-12 scaling=0.95 benchmark_Eint=-2.800 benchmark_unit=kcal/mol group=XH-S
  H    1.488411113  -0.839329770  -0.946998750
  H    2.603013228  -1.844008641  -0.015336080
  H    2.559788359  -0.100175654   0.268668478
  H    0.078774260  -0.119560383   1.214778309
  C    1.957669280  -0.970558599   0.024694512
  S    0.719917690  -1.297094746   1.320350134
  H   -1.525426880   0.089119424  -2.365121828
  H   -2.595326131   0.021457074  -0.960598105
  H   -1.047667409  -0.828081530  -0.904529128
  H    0.360922275   1.482927477  -1.111455484
  C   -1.557209649   0.054793601  -1.280419223
  S   -0.856884494   1.574334966  -0.557072134
