12
charge=0 charge_a=0 charge_b=0 selection_a=1-6 selection_b=7-12 scaling=0.85 benchmark_Eint=-0.961 benchmark_unit=kcal/mol group=XH-S
  H    1.488411113  -0.839329770  -0.946998750
  H    2.603013228  -1.844008641  -0.015336080
  H    2.559788359  -0.100175654   0.268668478
  H    0.078774260  -0.119560383   1.214778309
  C    1.957669280  -0.970558599   0.024694512
  S    0.719917690  -1.297094746   1.320350134
  H   -1.426936485  -0.089185349  -2.178611255
  H   -2.496835736  -0.156847699  -0.774087532
  H   -0.949177014  -1.006386303  -0.718018555
  H    0.459412670   1.304622704  -0.924944911
  C   -1.458719254  -0.123511172  -1.093908650
  S   -0.758394099   1.396030193  -0.370561561
