19
charge=0 charge_a=0 charge_b=0 selection_a=1-6 selection_b=7-19 scaling=0.9 benchmark_Eint=-3.283 benchmark_unit=kcal/mol group=XH-S
  H    2.755113220  -2.753027808  -0.032817687
  H    2.233284428  -3.660934405   1.391606817
  H    2.883045869  -2.028595610   1.588775535
  H    0.872270382  -0.865723654   0.251897806
  C    2.289789381  -2.671748578   0.945224659
  S    0.577862373  -2.061072768   0.806934935
  H   -0.640474213  -0.624029025  -1.616145190
  H   -0.735387445   0.846492639  -2.595500279
  H   -2.877980764   0.180537923  -1.134881109
  H   -0.591502093   2.549336424   0.997922917
  H   -2.336424232   1.857418490  -1.098779617
  H    0.102227054   1.109045399   1.755437560
  H   -2.544026510   1.154265736   1.259437382
  H   -1.629943875  -0.311315157   0.930811672
  S    0.602574759   1.197417461  -0.613912219
  C   -0.772568571   0.456154005  -1.582146250
  C   -2.054911080   0.834195362  -0.845588174
  C   -1.745466393   0.735129183   0.647318652
  C   -0.431303317   1.479471800   0.884078328
