19
charge=0 charge_a=0 charge_b=0 selection_a=1-6 selection_b=7-19 scaling=1.0 benchmark_Eint=-4.189 benchmark_unit=kcal/mol group=XH-S
  H    2.755113220  -2.753027808  -0.032817687
  H    2.233284428  -3.660934405   1.391606817
  H    2.883045869  -2.028595610   1.588775535
  H    0.872270382  -0.865723654   0.251897806
  C    2.289789381  -2.671748578   0.945224659
  S    0.577862373  -2.061072768   0.806934935
  H   -0.670440393  -0.394791123  -1.712346304
  H   -0.765353625   1.075730541  -2.691701393
  H   -2.907946944   0.409775825  -1.231082223
  H   -0.621468273   2.778574326   0.901721803
  H   -2.366390412   2.086656392  -1.194980731
  H    0.072260874   1.338283301   1.659236446
  H   -2.573992690   1.383503638   1.163236268
  H   -1.659910055  -0.082077255   0.834610558
  S    0.572608579   1.426655363  -0.710113333
  C   -0.802534751   0.685391907  -1.678347364
  C   -2.084877260   1.063433264  -0.941789288
  C   -1.775432573   0.964367085   0.551117538
  C   -0.461269497   1.708709702   0.787877214
