12
charge=0 charge_a=0 charge_b=0 selection_a=1-3 selection_b=4-12 scaling=1.0 benchmark_Eint=-3.612 benchmark_unit=kcal/mol group=XH-S
  H    0.940216132   0.774574813  -0.419266955
  H    0.912651072   2.631086310  -1.014683435
  S    1.346251352   1.970156198   0.068247852
  H   -0.901491269  -1.899353142   1.828073985
  H    0.114392733  -0.441617568   1.712934246
  H    0.810578495  -2.041984536   1.396946492
  H   -2.244936638  -0.081612386  -1.422387958
  H   -1.661391655   0.716225250   0.050078603
  H   -2.709705443  -0.722424285   0.161707888
  C   -0.079958306  -1.427252446   1.293099024
  S   -0.449606031  -1.309792671  -0.475600346
  C   -1.910944464  -0.242726693  -0.400386180
