12
charge=0 charge_a=0 charge_b=0 selection_a=1-3 selection_b=4-12 scaling=1.05 benchmark_Eint=-3.595 benchmark_unit=kcal/mol group=XH-S
  H    0.940216132   0.774574813  -0.419266955
  H    0.912651072   2.631086310  -1.014683435
  S    1.346251352   1.970156198   0.068247852
  H   -0.970982377  -2.003571516   1.825257315
  H    0.044901625  -0.545835942   1.710117576
  H    0.741087387  -2.146202910   1.394129822
  H   -2.314427746  -0.185830760  -1.425204628
  H   -1.730882763   0.612006876   0.047261933
  H   -2.779196551  -0.826642659   0.158891218
  C   -0.149449414  -1.531470820   1.290282354
  S   -0.519097139  -1.414011045  -0.478417016
  C   -1.980435572  -0.346945067  -0.403202850
