6
charge=0 charge_a=0 charge_b=0 selection_a=1-3 selection_b=4-6 scaling=2.0 benchmark_Eint=-0.157 benchmark_unit=kcal/mol group=XH-S
  H    0.531398318   0.644987156  -0.290550534
  H    2.238797718   0.672661953   0.638139856
  S    1.602737688   1.457777873  -0.243491684
  H   -4.190141205  -1.989128342   1.259107178
  H   -3.422170485  -3.504687433   0.322932472
  S   -4.036635058  -2.362738998  -0.019985370
