6
charge=0 charge_a=0 charge_b=0 selection_a=1-3 selection_b=4-6 scaling=1.5 benchmark_Eint=-0.563 benchmark_unit=kcal/mol group=XH-S
  H    0.531398318   0.644987156  -0.290550534
  H    2.238797718   0.672661953   0.638139856
  S    1.602737688   1.457777873  -0.243491684
  H   -3.048132861  -1.237196804   1.191465887
  H   -2.280162141  -2.752755894   0.255291181
  S   -2.894626714  -1.610807460  -0.087626661
