16
charge=0 charge_a=0 charge_b=0 selection_a=1-3 selection_b=4-16 scaling=2.0 benchmark_Eint=-0.470 benchmark_unit=kcal/mol group=XH-S
  H    1.259279987   1.114064871  -0.282655519
  H    2.282790173   2.734183409  -0.675778468
  S    1.071104189   2.451633102  -0.176419536
  H   -0.300333895  -2.439890247   1.839796518
  H   -0.390152660  -4.183103970   2.120805212
  H   -2.693135265  -2.828324993   1.931797590
  H   -1.710547930  -4.151496072  -1.623700467
  H   -2.545755750  -4.346550858   1.049491013
  H   -1.006300249  -2.565693930  -1.967224257
  H   -3.318581719  -2.672301951  -0.593385937
  H   -2.065323080  -1.551076515  -0.080221553
  S    0.173987093  -3.694004979  -0.177863529
  C   -0.655909815  -3.385214468   1.432919032
  C   -2.151466570  -3.332639211   1.131449765
  C   -2.302151860  -2.608104277  -0.205209301
  C   -1.307948336  -3.246005877  -1.175205095
