16
charge=0 charge_a=0 charge_b=0 selection_a=1-3 selection_b=4-16 scaling=0.95 benchmark_Eint=-3.820 benchmark_unit=kcal/mol group=XH-S
  H    1.259279987   1.114064871  -0.282655519
  H    2.282790173   2.734183409  -0.675778468
  S    1.071104189   2.451633102  -0.176419536
  H    0.269444874   0.084346424   1.784780723
  H    0.179626109  -1.658867299   2.065789417
  H   -2.123356496  -0.304088322   1.876781795
  H   -1.140769161  -1.627259401  -1.678716262
  H   -1.975976981  -1.822314187   0.994475218
  H   -0.436521480  -0.041457259  -2.022240052
  H   -2.748802950  -0.148065280  -0.648401732
  H   -1.495544311   0.973160156  -0.135237348
  S    0.743765862  -1.169768308  -0.232879324
  C   -0.086131046  -0.860977797   1.377903237
  C   -1.581687801  -0.808402540   1.076433970
  C   -1.732373091  -0.083867606  -0.260225096
  C   -0.738169567  -0.721769206  -1.230220890
