12
charge=0 charge_a=0 charge_b=0 selection_a=1-2 selection_b=3-12 scaling=2.0 benchmark_Eint=-0.946 benchmark_unit=kcal/mol group=XH-S
  H   -0.346903232   0.868584639  -1.985965324
  F   -0.202685645   1.471500906  -2.693050447
  H    1.445683717  -2.921157337   4.142582954
  H   -0.102401122  -3.565115621   3.556246294
  H   -0.064985563  -2.105297352   4.583465991
  H   -1.064272254   1.005249477   2.424964569
  H   -1.788159993  -0.023961460   3.693554165
  H   -2.745372279   0.447117576   2.274007319
  C    0.445086278  -2.659983646   3.801091195
  S    0.679222111  -1.634771524   2.316150860
  S   -1.250621994  -1.297486399   1.701202068
  C   -1.749110446   0.188511583   2.629401579
