12
charge=0 charge_a=0 charge_b=0 selection_a=1-2 selection_b=3-12 scaling=1.1 benchmark_Eint=-5.911 benchmark_unit=kcal/mol group=XH-S
  H   -0.346903232   0.868584639  -1.985965324
  F   -0.202685645   1.471500906  -2.693050447
  H    1.852357160  -1.946425370   2.483357628
  H    0.304272321  -2.590383654   1.897020968
  H    0.341687880  -1.130565385   2.924240665
  H   -0.657598811   1.979981444   0.765739243
  H   -1.381486550   0.950770507   2.034328839
  H   -2.338698836   1.421849543   0.614781993
  C    0.851759721  -1.685251679   2.141865869
  S    1.085895554  -0.660039557   0.656925534
  S   -0.843948551  -0.322754432   0.041976742
  C   -1.342437003   1.163243550   0.970176253
