11
charge=0 charge_a=0 charge_b=0 selection_a=1-2 selection_b=3-11 scaling=0.95 benchmark_Eint=-8.117 benchmark_unit=kcal/mol group=XH-S
  H    0.234950421   1.503189900   0.000000000
  F   -0.110872131   2.385641816   0.000000000
  H   -1.412951384  -0.172398349  -1.349885935
  H   -0.848835166  -1.865171430  -1.377367227
  H    0.013355559  -0.621831883  -2.300256732
  H    0.013355559  -0.621831883   2.300256732
  H   -0.848835166  -1.865171430   1.377367227
  H   -1.412951384  -0.172398349   1.349885935
  C   -0.541620034  -0.821960563  -1.387514538
  S    0.572349846  -0.478036664   0.000000000
  C   -0.541620034  -0.821960563   1.387514538
