11
charge=0 charge_a=0 charge_b=0 selection_a=1-2 selection_b=3-11 scaling=0.8 benchmark_Eint=-0.968 benchmark_unit=kcal/mol group=XH-S
  H    0.234950421   1.503189900   0.000000000
  F   -0.110872131   2.385641816   0.000000000
  H   -1.466224977   0.140426898  -1.349885935
  H   -0.902108759  -1.552346183  -1.377367227
  H   -0.039918034  -0.309006636  -2.300256732
  H   -0.039918034  -0.309006636   2.300256732
  H   -0.902108759  -1.552346183   1.377367227
  H   -1.466224977   0.140426898   1.349885935
  C   -0.594893628  -0.509135316  -1.387514538
  S    0.519076253  -0.165211417   0.000000000
  C   -0.594893628  -0.509135316   1.387514538
