8
charge=0 charge_a=0 charge_b=0 selection_a=1-2 selection_b=3-8 scaling=0.85 benchmark_Eint=-3.708 benchmark_unit=kcal/mol group=XH-S
  H   -0.227014778   0.166887111  -1.353692766
  F   -0.474200276   0.715088217  -2.079126833
  H   -0.692476004   1.562710764   0.806924916
  H    1.050323484   1.403362441   1.062860756
  H   -0.067296001   0.719309842   2.253082792
  H   -1.076466585  -1.063795410   0.498567932
  C    0.087928584   0.917800742   1.197455912
  S    0.174359791  -0.642769899   0.256406806
