8
charge=0 charge_a=0 charge_b=0 selection_a=1-2 selection_b=3-8 scaling=1.0 benchmark_Eint=-6.963 benchmark_unit=kcal/mol group=XH-S
  H   -0.227014778   0.166887111  -1.353692766
  F   -0.474200276   0.715088217  -2.079126833
  H   -0.621645198   1.419830115   1.091060134
  H    1.121154290   1.260481792   1.346995975
  H    0.003534805   0.576429193   2.537218011
  H   -1.005635779  -1.206676059   0.782703151
  C    0.158759390   0.774920093   1.481591131
  S    0.245190597  -0.785650548   0.540542024
