8
charge=0 charge_a=0 charge_b=0 selection_a=1-2 selection_b=3-8 scaling=1.05 benchmark_Eint=-6.885 benchmark_unit=kcal/mol group=XH-S
  H   -0.227014778   0.166887111  -1.353692766
  F   -0.474200276   0.715088217  -2.079126833
  H   -0.598034929   1.372203232   1.185771874
  H    1.144764559   1.212854909   1.441707714
  H    0.027145074   0.528802310   2.631929750
  H   -0.982025510  -1.254302942   0.877414890
  C    0.182369659   0.727293210   1.576302870
  S    0.268800866  -0.833277431   0.635253764
