9
charge=0 charge_a=0 charge_b=0 selection_a=1-2 selection_b=3-9 scaling=1.0 benchmark_Eint=-3.811 benchmark_unit=kcal/mol group=XH-S
  H   -0.607657650   0.256546982   0.016152236
  F   -1.168363226   0.439472991  -0.706812055
  S    0.777599823   0.111498533   1.835778732
  P    0.332207079   2.087905135   2.453963575
  S   -2.287635940  -0.091254532   2.850770618
  S    0.157150421  -0.229412154   4.976939518
  P   -0.101590961   1.839130594   4.649438506
  P   -1.796910824   1.934358518   3.169956737
  P   -0.438090761  -1.075542652   3.131214806
