9
charge=0 charge_a=0 charge_b=0 selection_a=1-2 selection_b=3-9 scaling=0.8 benchmark_Eint=1.707 benchmark_unit=kcal/mol group=XH-S
  H   -0.607657650   0.256546982   0.016152236
  F   -1.168363226   0.439472991  -0.706812055
  S    0.500548328   0.140508223   1.471853433
  P    0.055155584   2.116914825   2.090038276
  S   -2.564687435  -0.062244842   2.486845319
  S   -0.119901074  -0.200402464   4.613014219
  P   -0.378642456   1.868140284   4.285513207
  P   -2.073962319   1.963368208   2.806031438
  P   -0.715142256  -1.046532962   2.767289507
