9
charge=0 charge_a=0 charge_b=0 selection_a=1-2 selection_b=3-9 scaling=1.05 benchmark_Eint=-3.837 benchmark_unit=kcal/mol group=XH-S
  H   -0.607657650   0.256546982   0.016152236
  F   -1.168363226   0.439472991  -0.706812055
  S    0.846862697   0.104246111   1.926760057
  P    0.401469953   2.080652713   2.544944900
  S   -2.218373066  -0.098506954   2.941751943
  S    0.226413295  -0.236664576   5.067920843
  P   -0.032328087   1.831878172   4.740419831
  P   -1.727647950   1.927106096   3.260938062
  P   -0.368827887  -1.082795074   3.222196131
