5
charge=0 charge_a=0 charge_b=0 selection_a=1-2 selection_b=3-5 scaling=1.05 benchmark_Eint=-5.203 benchmark_unit=kcal/mol group=XH-S
  H    0.048002422   1.088734497   0.000000000
  F   -0.004908833   2.023879365   0.000000000
  H   -0.863443319  -1.380596435   0.970994567
  H   -0.863443319  -1.380596435  -0.970994567
  S    0.056256620  -1.269272727   0.000000000
