5
charge=0 charge_a=0 charge_b=0 selection_a=1-2 selection_b=3-5 scaling=0.8 benchmark_Eint=0.547 benchmark_unit=kcal/mol group=XH-S
  H    0.048002422   1.088734497   0.000000000
  F   -0.004908833   2.023879365   0.000000000
  H   -0.865408604  -0.819166144   0.970994567
  H   -0.865408604  -0.819166144  -0.970994567
  S    0.054291335  -0.707842436   0.000000000
