15
charge=0 charge_a=0 charge_b=0 selection_a=1-2 selection_b=3-15 scaling=1.1 benchmark_Eint=-8.677 benchmark_unit=kcal/mol group=XH-S
  H   -0.328148919   0.674631615  -1.759528174
  F   -0.332598602   1.541791953  -2.147664879
  H   -1.586442756  -1.143167683   1.592781934
  H   -2.059782371   0.119704896   0.446675066
  H   -0.670764602   0.873313223   2.606345136
  H    1.843998237   0.100499688  -0.287797224
  H   -0.172765439   1.503898445   1.036427088
  H    2.067294609  -1.521127788   0.382693207
  H    1.861056794   0.558954853   2.082874089
  H    1.003426581  -0.933585626   2.452172066
  S   -0.203669158  -1.180221414  -0.391035924
  C   -1.215313579  -0.374497860   0.918461397
  C   -0.275681779   0.594870328   1.629455771
  C    1.074660411  -0.111802381   1.738077106
  C    1.404135366  -0.661659964   0.350431986
