15
charge=0 charge_a=0 charge_b=0 selection_a=1-2 selection_b=3-15 scaling=2.0 benchmark_Eint=-1.295 benchmark_unit=kcal/mol group=XH-S
  H   -0.328148919   0.674631615  -1.759528174
  F   -0.332598602   1.541791953  -2.147664879
  H   -1.484595679  -2.660774706   2.712457412
  H   -1.957935294  -1.397902127   1.566350544
  H   -0.568917525  -0.644293800   3.726020614
  H    1.945845314  -1.417107335   0.831878254
  H   -0.070918362  -0.013708578   2.156102566
  H    2.169141686  -3.038734811   1.502368685
  H    1.962903871  -0.958652170   3.202549567
  H    1.105273658  -2.451192649   3.571847544
  S   -0.101822081  -2.697828437   0.728639554
  C   -1.113466502  -1.892104883   2.038136875
  C   -0.173834702  -0.922736695   2.749131249
  C    1.176507488  -1.629409404   2.857752584
  C    1.505982443  -2.179266987   1.470107464
