15
charge=0 charge_a=0 charge_b=0 selection_a=1-2 selection_b=3-15 scaling=1.5 benchmark_Eint=-3.909 benchmark_unit=kcal/mol group=XH-S
  H   -0.328148919   0.674631615  -1.759528174
  F   -0.332598602   1.541791953  -2.147664879
  H   -1.541177388  -1.817659693   2.090415480
  H   -2.014517004  -0.554787114   0.944308612
  H   -0.625499234   0.198821213   3.103978682
  H    1.889263604  -0.573992322   0.209836322
  H   -0.127500072   0.829406435   1.534060634
  H    2.112559976  -2.195619798   0.880326753
  H    1.906322162  -0.115537157   2.580507635
  H    1.048691948  -1.608077636   2.949805612
  S   -0.158403790  -1.854713424   0.106597622
  C   -1.170048212  -1.048989870   1.416094943
  C   -0.230416412  -0.079621682   2.127089317
  C    1.119925778  -0.786294391   2.235710652
  C    1.449400734  -1.336151974   0.848065532
