12
charge=0 charge_a=0 charge_b=0 selection_a=1-2 selection_b=3-12 scaling=0.95 benchmark_Eint=-8.087 benchmark_unit=kcal/mol group=XH-S
  H   -0.191797763  -1.955532752   0.000000000
  F    0.331167063  -2.745939304   0.000000000
  H   -0.902025991   2.655613797   0.000000000
  H    0.643101585   2.745087874   0.874524845
  H    0.643101585   2.745087874  -0.874524845
  H    1.703878220  -0.765546839   0.000000000
  H    2.190854315   0.702953607  -0.873839624
  C    0.133484087   2.333251856   0.000000000
  C    0.259040359   0.841812857   0.000000000
  S   -1.059116346  -0.118341596   0.000000000
  C    1.659329900   0.317502420   0.000000000
  H    2.190854315   0.702953607   0.873839624
