12
charge=0 charge_a=0 charge_b=0 selection_a=1-2 selection_b=3-12 scaling=1.25 benchmark_Eint=-6.292 benchmark_unit=kcal/mol group=XH-S
  H   -0.191797763  -1.955532752   0.000000000
  F    0.331167063  -2.745939304   0.000000000
  H   -1.175916069   3.235779425   0.000000000
  H    0.369211507   3.325253502   0.874524845
  H    0.369211507   3.325253502  -0.874524845
  H    1.429988142  -0.185381211   0.000000000
  H    1.916964237   1.283119235  -0.873839624
  C   -0.140405991   2.913417484   0.000000000
  C   -0.014849719   1.421978485   0.000000000
  S   -1.333006424   0.461824032   0.000000000
  C    1.385439822   0.897668048   0.000000000
  H    1.916964237   1.283119235   0.873839624
