12
charge=0 charge_a=0 charge_b=0 selection_a=1-2 selection_b=3-12 scaling=0.9 benchmark_Eint=-7.023 benchmark_unit=kcal/mol group=XH-S
  H   -0.191797763  -1.955532752   0.000000000
  F    0.331167063  -2.745939304   0.000000000
  H   -0.856377644   2.558919525   0.000000000
  H    0.688749932   2.648393602   0.874524845
  H    0.688749932   2.648393602  -0.874524845
  H    1.749526567  -0.862241111   0.000000000
  H    2.236502662   0.606259335  -0.873839624
  C    0.179132434   2.236557584   0.000000000
  C    0.304688706   0.745118585   0.000000000
  S   -1.013467999  -0.215035868   0.000000000
  C    1.704978247   0.220808148   0.000000000
  H    2.236502662   0.606259335   0.873839624
