12
charge=0 charge_a=0 charge_b=0 selection_a=1-2 selection_b=3-12 scaling=1.0 benchmark_Eint=-8.449 benchmark_unit=kcal/mol group=XH-S
  H   -0.191797763  -1.955532752   0.000000000
  F    0.331167063  -2.745939304   0.000000000
  H   -0.947674337   2.752308068   0.000000000
  H    0.597453239   2.841782145   0.874524845
  H    0.597453239   2.841782145  -0.874524845
  H    1.658229874  -0.668852568   0.000000000
  H    2.145205969   0.799647878  -0.873839624
  C    0.087835741   2.429946127   0.000000000
  C    0.213392013   0.938507128   0.000000000
  S   -1.104764692  -0.021647325   0.000000000
  C    1.613681554   0.414196691   0.000000000
  H    2.145205969   0.799647878   0.873839624
