12
charge=0 charge_a=0 charge_b=0 selection_a=1-2 selection_b=3-12 scaling=0.8 benchmark_Eint=0.646 benchmark_unit=kcal/mol group=XH-S
  H   -0.260682653   0.626538723  -1.615802087
 Cl    0.105810980   1.516702620  -2.497902669
  H    1.936990989  -1.798772851   2.378994373
  H    0.338652399  -2.417368720   1.911395908
  H    0.483865824  -0.870712518   2.790765600
  H   -0.459252389   2.073987233   0.377009181
  H   -1.148702386   1.199001945   1.774326872
  H   -2.165874437   1.577072491   0.369231640
  C    0.936934285  -1.521691936   2.048484557
  S    1.158567795  -0.653947947   0.464185645
  S   -0.773149759  -0.274913782  -0.115731077
  C   -1.161591463   1.309159702   0.694118469
