12
charge=0 charge_a=0 charge_b=0 selection_a=1-2 selection_b=3-12 scaling=1.05 benchmark_Eint=-4.767 benchmark_unit=kcal/mol group=XH-S
  H   -0.260682653   0.626538723  -1.615802087
 Cl    0.105810980   1.516702620  -2.497902669
  H    1.776845019  -2.080476759   2.847766564
  H    0.178506429  -2.699072628   2.380168099
  H    0.323719854  -1.152416426   3.259537791
  H   -0.619398359   1.792283325   0.845781372
  H   -1.308848356   0.917298037   2.243099063
  H   -2.326020407   1.295368583   0.838003831
  C    0.776788315  -1.803395844   2.517256748
  S    0.998421825  -0.935651855   0.932957836
  S   -0.933295729  -0.556617690   0.353041114
  C   -1.321737433   1.027455794   1.162890660
