12
charge=0 charge_a=0 charge_b=0 selection_a=1-2 selection_b=3-12 scaling=0.85 benchmark_Eint=-2.050 benchmark_unit=kcal/mol group=XH-S
  H   -0.260682653   0.626538723  -1.615802087
 Cl    0.105810980   1.516702620  -2.497902669
  H    1.904961795  -1.855113632   2.472748812
  H    0.306623205  -2.473709501   2.005150347
  H    0.451836630  -0.927053299   2.884520039
  H   -0.491281583   2.017646452   0.470763620
  H   -1.180731580   1.142661164   1.868081311
  H   -2.197903631   1.520731710   0.462986079
  C    0.904905091  -1.578032717   2.142238996
  S    1.126538601  -0.710288728   0.557940084
  S   -0.805178953  -0.331254563  -0.021976638
  C   -1.193620657   1.252818921   0.787872908
