9
charge=0 charge_a=0 charge_b=0 selection_a=1-2 selection_b=3-9 scaling=1.05 benchmark_Eint=-3.491 benchmark_unit=kcal/mol group=XH-S
  H   -0.573885324   0.231715936  -0.009838134
 Cl   -1.310853354   0.724488426  -0.947943052
  S    0.977066154  -0.034076420   2.065989028
  P    0.470044269   1.974929965   2.490029630
  S   -2.150935003  -0.205470595   2.869592688
  S    0.123161036  -0.128038764   5.175271416
  P   -0.131364450   1.901644473   4.658395196
  P   -1.706747005   1.848228627   3.048258622
  P   -0.312794540  -1.129315687   3.361889664
