9
charge=0 charge_a=0 charge_b=0 selection_a=1-2 selection_b=3-9 scaling=0.8 benchmark_Eint=0.948 benchmark_unit=kcal/mol group=XH-S
  H   -0.573885324   0.231715936  -0.009838134
 Cl   -1.310853354   0.724488426  -0.947943052
  S    0.607791993   0.029207474   1.571744466
  P    0.100770108   2.038213859   1.995785068
  S   -2.520209164  -0.142186701   2.375348126
  S   -0.246113125  -0.064754870   4.681026854
  P   -0.500638611   1.964928367   4.164150633
  P   -2.076021166   1.911512521   2.554014060
  P   -0.682068701  -1.066031793   2.867645102
