9
charge=0 charge_a=0 charge_b=0 selection_a=1-2 selection_b=3-9 scaling=1.1 benchmark_Eint=-3.364 benchmark_unit=kcal/mol group=XH-S
  H   -0.573885324   0.231715936  -0.009838134
 Cl   -1.310853354   0.724488426  -0.947943052
  S    1.050920987  -0.046733199   2.164837941
  P    0.543899102   1.962273186   2.588878543
  S   -2.077080170  -0.218127374   2.968441601
  S    0.197015869  -0.140695543   5.274120329
  P   -0.057509617   1.888987694   4.757244108
  P   -1.632892172   1.835571848   3.147107535
  P   -0.238939707  -1.141972466   3.460738577
