9
charge=0 charge_a=0 charge_b=0 selection_a=1-2 selection_b=3-9 scaling=0.9 benchmark_Eint=-2.516 benchmark_unit=kcal/mol group=XH-S
  H   -0.573885324   0.231715936  -0.009838134
 Cl   -1.310853354   0.724488426  -0.947943052
  S    0.755501657   0.003893917   1.769442291
  P    0.248479772   2.012900302   2.193482893
  S   -2.372499500  -0.167500258   2.573045951
  S   -0.098403461  -0.090068427   4.878724679
  P   -0.352928947   1.939614810   4.361848458
  P   -1.928311502   1.886198964   2.751711885
  P   -0.534359037  -1.091345350   3.065342927
