5
charge=0 charge_a=0 charge_b=0 selection_a=1-2 selection_b=3-5 scaling=1.0 benchmark_Eint=-3.447 benchmark_unit=kcal/mol group=XH-S
  H   -0.075747714   0.516968121   0.000000000
 Cl    0.002059029   1.812868211   0.000000000
  H    0.870502757  -1.930871842   0.970324615
  H    0.870502757  -1.930871842  -0.970324615
  S   -0.054744354  -1.877356413   0.000000000
