5
charge=0 charge_a=0 charge_b=0 selection_a=1-2 selection_b=3-5 scaling=0.8 benchmark_Eint=1.147 benchmark_unit=kcal/mol group=XH-S
  H   -0.075747714   0.516968121   0.000000000
 Cl    0.002059029   1.812868211   0.000000000
  H    0.866302085  -1.452006935   0.970324615
  H    0.866302085  -1.452006935  -0.970324615
  S   -0.058945026  -1.398491506   0.000000000
