15
charge=0 charge_a=0 charge_b=0 selection_a=1-2 selection_b=3-15 scaling=0.8 benchmark_Eint=-1.091 benchmark_unit=kcal/mol group=XH-S
  H   -0.218382161   0.191075287  -1.473719797
 Cl   -0.276261258   1.341645487  -2.138661144
  H   -1.641800323  -0.840591841   1.515847948
  H   -2.069738140   0.245764095   0.185734166
  H   -0.898036359   1.312899771   2.353479731
  H    1.811936537   0.436011173  -0.302481730
  H   -0.341157490   1.810922689   0.757169022
  H    2.154785012  -1.070475124   0.561162633
  H    1.679161279   1.142731614   2.008508724
  H    0.909802438  -0.363917242   2.498577330
  S   -0.094290765  -1.047299292  -0.328337355
  C   -1.248002918  -0.140451603   0.782730686
  C   -0.421031867   0.963685683   1.437958740
  C    0.965632266   0.378603243   1.701229791
  C    1.415627786  -0.290448625   0.403757094
