15
charge=0 charge_a=0 charge_b=0 selection_a=1-2 selection_b=3-15 scaling=0.95 benchmark_Eint=-7.474 benchmark_unit=kcal/mol group=XH-S
  H   -0.218382161   0.191075287  -1.473719797
 Cl   -0.276261258   1.341645487  -2.138661144
  H   -1.618533186  -1.072787075   1.730607156
  H   -2.046471003   0.013568861   0.400493374
  H   -0.874769222   1.080704537   2.568238939
  H    1.835203674   0.203815939  -0.087722522
  H   -0.317890353   1.578727455   0.971928230
  H    2.178052149  -1.302670358   0.775921841
  H    1.702428416   0.910536380   2.223267932
  H    0.933069575  -0.596112476   2.713336538
  S   -0.071023628  -1.279494526  -0.113578147
  C   -1.224735781  -0.372646837   0.997489894
  C   -0.397764730   0.731490449   1.652717948
  C    0.988899403   0.146408009   1.915988999
  C    1.438894923  -0.522643859   0.618516302
