12
charge=0 charge_a=0 charge_b=0 selection_a=1-2 selection_b=3-12 scaling=0.9 benchmark_Eint=-4.752 benchmark_unit=kcal/mol group=XH-S
  H   -0.378300426   1.492799450   0.000000000
 Cl    0.152298446   2.699176240   0.000000000
  H    1.667338358   0.408712124   0.000000000
  H    2.235872218  -1.028254163   0.874053685
  H    2.235872218  -1.028254163  -0.874053685
  H   -0.740758823  -3.153916936   0.000000000
  H    0.806924678  -3.155136746  -0.874658941
  C    1.683037316  -0.674867081   0.000000000
  C    0.313725767  -1.276434515   0.000000000
  S   -1.054331033  -0.391147990   0.000000000
  C    0.274700618  -2.773082663   0.000000000
  H    0.806924678  -3.155136746   0.874658941
