12
charge=0 charge_a=0 charge_b=0 selection_a=1-2 selection_b=3-12 scaling=2.0 benchmark_Eint=-0.903 benchmark_unit=kcal/mol group=XH-S
  H   -0.378300426   1.492799450   0.000000000
 Cl    0.152298446   2.699176240   0.000000000
  H    0.841078727  -1.893890302   0.000000000
  H    1.409612587  -3.330856589   0.874053685
  H    1.409612587  -3.330856589  -0.874053685
  H   -1.567018454  -5.456519362   0.000000000
  H   -0.019334953  -5.457739172  -0.874658941
  C    0.856777685  -2.977469507   0.000000000
  C   -0.512533864  -3.579036941   0.000000000
  S   -1.880590664  -2.693750416   0.000000000
  C   -0.551559013  -5.075685089   0.000000000
  H   -0.019334953  -5.457739172   0.874658941
