12
charge=0 charge_a=0 charge_b=0 selection_a=1-2 selection_b=3-12 scaling=1.25 benchmark_Eint=-4.706 benchmark_unit=kcal/mol group=XH-S
  H   -0.378300426   1.492799450   0.000000000
 Cl    0.152298446   2.699176240   0.000000000
  H    1.404437566  -0.323934102   0.000000000
  H    1.972971426  -1.760900389   0.874053685
  H    1.972971426  -1.760900389  -0.874053685
  H   -1.003659615  -3.886563162   0.000000000
  H    0.544023886  -3.887782972  -0.874658941
  C    1.420136524  -1.407513307   0.000000000
  C    0.050824975  -2.009080741   0.000000000
  S   -1.317231825  -1.123794216   0.000000000
  C    0.011799826  -3.505728889   0.000000000
  H    0.544023886  -3.887782972   0.874658941
