12
charge=0 charge_a=0 charge_b=0 selection_a=1-2 selection_b=3-12 scaling=1.05 benchmark_Eint=-4.731 benchmark_unit=kcal/mol group=XH-S
  H   -0.341594984   0.208126873  -0.915648439
 Br    0.140219177   1.167610147  -1.896611081
  H    1.702161230  -2.576435541   3.425004509
  H    0.047914661  -3.104626056   3.050524410
  H    0.329724301  -1.559551783   3.899048650
  H   -0.563961820   1.408621959   1.493969387
  H   -1.227326247   0.592669634   2.939184917
  H   -2.294997005   1.014590913   1.584799309
  C    0.703882117  -2.244379131   3.143393631
  S    0.892352012  -1.408717925   1.537734793
  S   -1.041634387  -0.921906907   1.053797394
  C   -1.292195180   0.690988985   1.859733998
