12
charge=0 charge_a=0 charge_b=0 selection_a=1-2 selection_b=3-12 scaling=1.0 benchmark_Eint=-4.733 benchmark_unit=kcal/mol group=XH-S
  H   -0.341594984   0.208126873  -0.915648439
 Br    0.140219177   1.167610147  -1.896611081
  H    1.735496440  -2.522624409   3.331221374
  H    0.081249871  -3.050814924   2.956741275
  H    0.363059511  -1.505740651   3.805265515
  H   -0.530626610   1.462433091   1.400186252
  H   -1.193991037   0.646480766   2.845401782
  H   -2.261661795   1.068402045   1.491016174
  C    0.737217327  -2.190567999   3.049610496
  S    0.925687222  -1.354906793   1.443951658
  S   -1.008299177  -0.868095775   0.960014259
  C   -1.258859970   0.744800117   1.765950863
