12
charge=0 charge_a=0 charge_b=0 selection_a=1-2 selection_b=3-12 scaling=1.1 benchmark_Eint=-4.547 benchmark_unit=kcal/mol group=XH-S
  H   -0.341594984   0.208126873  -0.915648439
 Br    0.140219177   1.167610147  -1.896611081
  H    1.668826021  -2.630246674   3.518787644
  H    0.014579452  -3.158437189   3.144307545
  H    0.296389092  -1.613362916   3.992831785
  H   -0.597297029   1.354810826   1.587752522
  H   -1.260661456   0.538858501   3.032968052
  H   -2.328332214   0.960779780   1.678582444
  C    0.670546908  -2.298190264   3.237176766
  S    0.859016803  -1.462529058   1.631517928
  S   -1.074969596  -0.975718040   1.147580529
  C   -1.325530389   0.637177852   1.953517133
