12
charge=0 charge_a=0 charge_b=0 selection_a=1-2 selection_b=3-12 scaling=0.85 benchmark_Eint=-2.283 benchmark_unit=kcal/mol group=XH-S
  H   -0.341594984   0.208126873  -0.915648439
 Br    0.140219177   1.167610147  -1.896611081
  H    1.835502069  -2.361191012   3.049871969
  H    0.181255500  -2.889381527   2.675391870
  H    0.463065140  -1.344307254   3.523916110
  H   -0.430620981   1.623866488   1.118836847
  H   -1.093985408   0.807914163   2.564052377
  H   -2.161656166   1.229835442   1.209666769
  C    0.837222956  -2.029134602   2.768261091
  S    1.025692851  -1.193473396   1.162602253
  S   -0.908293548  -0.706662378   0.678664854
  C   -1.158854341   0.906233514   1.484601458
