11
charge=0 charge_a=0 charge_b=0 selection_a=1-2 selection_b=3-11 scaling=1.1 benchmark_Eint=-7.027 benchmark_unit=kcal/mol group=XH-S
  H   -0.343429210   0.154375710  -0.309593205
 Br    0.499588318  -0.323138206  -1.433920295
  H    1.207843922   1.001416089   1.678308682
  H    0.541168016   1.426781178   3.279672707
  H    0.311069518   2.514675344   1.898806491
  H   -1.732061362  -1.599003289   2.113993430
  H   -0.670473220  -1.012761786   3.407284390
  H    0.004534313  -1.421350436   1.805042872
  C    0.381637994   1.474363830   2.205125834
  S   -1.184364102   0.680498407   1.763767037
  C   -0.849529294  -1.004492543   2.334794349
