11
charge=0 charge_a=0 charge_b=0 selection_a=1-2 selection_b=3-11 scaling=0.9 benchmark_Eint=-6.278 benchmark_unit=kcal/mol group=XH-S
  H   -0.343429210   0.154375710  -0.309593205
 Br    0.499588318  -0.323138206  -1.433920295
  H    1.360741176   0.905757417   1.301334092
  H    0.694065268   1.331122506   2.902698117
  H    0.463966770   2.419016672   1.521831901
  H   -1.579164110  -1.694661961   1.737018840
  H   -0.517575968  -1.108420458   3.030309800
  H    0.157431566  -1.517009108   1.428068282
  C    0.534535246   1.378705158   1.828151244
  S   -1.031466848   0.584839735   1.386792447
  C   -0.696632040  -1.100151215   1.957819759
