8
charge=0 charge_a=0 charge_b=0 selection_a=1-2 selection_b=3-8 scaling=0.9 benchmark_Eint=-3.950 benchmark_unit=kcal/mol group=XH-S
  H    0.132061490  -0.386054295  -0.144426513
 Br   -0.319777356   0.407793335  -1.282933983
  H   -0.388859558   1.112085623   1.775993559
  H    1.299736302   1.051108658   2.298873836
  H    0.029678845   0.507916707   3.405523801
  H   -0.681042749  -1.553984082   1.846137675
  C    0.334640613   0.556700126   2.365131296
  S    0.577131735  -1.116681350   1.684488616
