8
charge=0 charge_a=0 charge_b=0 selection_a=1-2 selection_b=3-8 scaling=1.5 benchmark_Eint=-2.115 benchmark_unit=kcal/mol group=XH-S
  H    0.132061490  -0.386054295  -0.144426513
 Br   -0.319777356   0.407793335  -1.282933983
  H   -0.092146062   0.625000920   2.995270312
  H    1.596449798   0.564023954   3.518150588
  H    0.326392341   0.020832004   4.624800554
  H   -0.384329253  -2.041068786   3.065414428
  C    0.631354109   0.069615422   3.584408048
  S    0.873845231  -1.603766054   2.903765368
