8
charge=0 charge_a=0 charge_b=0 selection_a=1-2 selection_b=3-8 scaling=2.0 benchmark_Eint=-0.653 benchmark_unit=kcal/mol group=XH-S
  H    0.132061490  -0.386054295  -0.144426513
 Br   -0.319777356   0.407793335  -1.282933983
  H    0.155115185   0.219097000   4.011334272
  H    1.843711045   0.158120035   4.534214549
  H    0.573653588  -0.385071916   5.640864514
  H   -0.137068006  -2.446972705   4.081478388
  C    0.878615356  -0.336288497   4.600472009
  S    1.121106478  -2.009669973   3.919829329
