8
charge=0 charge_a=0 charge_b=0 selection_a=1-2 selection_b=3-8 scaling=1.1 benchmark_Eint=-4.801 benchmark_unit=kcal/mol group=XH-S
  H    0.132061490  -0.386054295  -0.144426513
 Br   -0.319777356   0.407793335  -1.282933983
  H   -0.289955060   0.949724055   2.182419143
  H    1.398640800   0.888747090   2.705299420
  H    0.128583343   0.345555139   3.811949385
  H   -0.582138251  -1.716345650   2.252563259
  C    0.433545111   0.394338558   2.771556880
  S    0.676036233  -1.279042918   2.090914200
