9
charge=0 charge_a=0 charge_b=0 selection_a=1-2 selection_b=3-9 scaling=1.1 benchmark_Eint=-3.501 benchmark_unit=kcal/mol group=XH-S
  H   -0.513232116   0.204990711  -0.024081129
 Br   -1.319093678   0.779092326  -1.062312847
  S    1.080122101  -0.057830481   2.214945730
  P    0.542886843   1.952140937   2.590787622
  S   -2.065915109  -0.247199008   2.942408298
  S    0.146910772  -0.106976879   5.302861008
  P   -0.113776796   1.910789126   4.743918944
  P   -1.645959898   1.813661993   3.094367683
  P   -0.231281479  -1.143215162   3.496042636
