9
charge=0 charge_a=0 charge_b=0 selection_a=1-2 selection_b=3-9 scaling=1.5 benchmark_Eint=-1.536 benchmark_unit=kcal/mol group=XH-S
  H   -0.513232116   0.204990711  -0.024081129
 Br   -1.319093678   0.779092326  -1.062312847
  S    1.659523635  -0.153401823   3.029137316
  P    1.122288377   1.856569595   3.404979208
  S   -1.486513575  -0.342770350   3.756599884
  S    0.726312306  -0.202548221   6.117052594
  P    0.465624738   1.815217784   5.558110530
  P   -1.066558364   1.718090651   3.908559268
  P    0.348120055  -1.238786504   4.310234222
