9
charge=0 charge_a=0 charge_b=0 selection_a=1-2 selection_b=3-9 scaling=2.0 benchmark_Eint=-0.464 benchmark_unit=kcal/mol group=XH-S
  H   -0.513232116   0.204990711  -0.024081129
 Br   -1.319093678   0.779092326  -1.062312847
  S    2.383775552  -0.272866001   4.046876797
  P    1.846540294   1.737105417   4.422718689
  S   -0.762261658  -0.462234528   4.774339365
  S    1.450564223  -0.322012399   7.134792075
  P    1.189876655   1.695753606   6.575850011
  P   -0.342306447   1.598626473   4.926298750
  P    1.072371972  -1.358250682   5.327973703
