5
charge=0 charge_a=0 charge_b=0 selection_a=1-2 selection_b=3-5 scaling=1.05 benchmark_Eint=-3.162 benchmark_unit=kcal/mol group=XH-S
  H    0.089826685  -0.279470572   0.000000000
 Br   -0.000793002   1.161288587   0.000000000
  H   -0.874323786  -2.828298788   0.970143953
  H   -0.874323786  -2.828298788  -0.970143953
  S    0.052349706  -2.807314808   0.000000000
