12
charge=0 charge_a=0 charge_b=0 selection_a=1-2 selection_b=3-12 scaling=1.05 benchmark_Eint=-5.927 benchmark_unit=kcal/mol group=XH-S
  H   -0.462973966   0.619411228   0.000000000
 Br    0.064311133   1.992874943   0.000000000
  H    1.524181872  -0.699626479   0.000000000
  H    2.128931885  -2.121536369   0.874089504
  H    2.128931885  -2.121536369  -0.874089504
  H   -0.791530840  -4.323434968   0.000000000
  H    0.755689963  -4.284365181  -0.874715038
  C    1.567369292  -1.782409710   0.000000000
  C    0.214471312  -2.419354807   0.000000000
  S   -1.176793050  -1.570945602   0.000000000
  C    0.213742635  -3.916419847   0.000000000
  H    0.755689963  -4.284365181   0.874715038
