12
charge=0 charge_a=0 charge_b=0 selection_a=1-2 selection_b=3-12 scaling=1.5 benchmark_Eint=-2.750 benchmark_unit=kcal/mol group=XH-S
  H   -0.462973966   0.619411228   0.000000000
 Br    0.064311133   1.992874943   0.000000000
  H    1.218259408  -1.638350835   0.000000000
  H    1.823009420  -3.060260725   0.874089504
  H    1.823009420  -3.060260725  -0.874089504
  H   -1.097453304  -5.262159324   0.000000000
  H    0.449767498  -5.223089537  -0.874715038
  C    1.261446828  -2.721134066   0.000000000
  C   -0.091451152  -3.358079163   0.000000000
  S   -1.482715514  -2.509669958   0.000000000
  C   -0.092179829  -4.855144203   0.000000000
  H    0.449767498  -5.223089537   0.874715038
