12
charge=0 charge_a=0 charge_b=0 selection_a=1-2 selection_b=3-12 scaling=0.85 benchmark_Eint=-3.166 benchmark_unit=kcal/mol group=XH-S
  H   -0.462973966   0.619411228   0.000000000
 Br    0.064311133   1.992874943   0.000000000
  H    1.660147412  -0.282415654   0.000000000
  H    2.264897425  -1.704325544   0.874089504
  H    2.264897425  -1.704325544  -0.874089504
  H   -0.655565300  -3.906224143   0.000000000
  H    0.891655503  -3.867154356  -0.874715038
  C    1.703334832  -1.365198885   0.000000000
  C    0.350436852  -2.002143982   0.000000000
  S   -1.040827510  -1.153734777   0.000000000
  C    0.349708175  -3.499209022   0.000000000
  H    0.891655503  -3.867154356   0.874715038
