12
charge=0 charge_a=0 charge_b=0 selection_a=1-2 selection_b=3-12 scaling=2.0 benchmark_Eint=-0.898 benchmark_unit=kcal/mol group=XH-S
  H   -0.462973966   0.619411228   0.000000000
 Br    0.064311133   1.992874943   0.000000000
  H    0.878345558  -2.681377897   0.000000000
  H    1.483095571  -4.103287787   0.874089504
  H    1.483095571  -4.103287787  -0.874089504
  H   -1.437367154  -6.305186386   0.000000000
  H    0.109853649  -6.266116599  -0.874715038
  C    0.921532978  -3.764161128   0.000000000
  C   -0.431365002  -4.401106225   0.000000000
  S   -1.822629364  -3.552697020   0.000000000
  C   -0.432093679  -5.898171265   0.000000000
  H    0.109853649  -6.266116599   0.874715038
