12
charge=0 charge_a=0 charge_b=0 selection_a=1-2 selection_b=3-12 scaling=1.1 benchmark_Eint=-5.743 benchmark_unit=kcal/mol group=XH-S
  H   -0.462973966   0.619411228   0.000000000
 Br    0.064311133   1.992874943   0.000000000
  H    1.490190487  -0.803929185   0.000000000
  H    2.094940500  -2.225839075   0.874089504
  H    2.094940500  -2.225839075  -0.874089504
  H   -0.825522225  -4.427737674   0.000000000
  H    0.721698578  -4.388667887  -0.874715038
  C    1.533377907  -1.886712416   0.000000000
  C    0.180479927  -2.523657513   0.000000000
  S   -1.210784435  -1.675248308   0.000000000
  C    0.179751250  -4.020722553   0.000000000
  H    0.721698578  -4.388667887   0.874715038
