12
charge=0 charge_a=0 charge_b=0 selection_a=1-2 selection_b=3-12 scaling=1.05 benchmark_Eint=-4.587 benchmark_unit=kcal/mol group=XH-S
  H    0.178549809  -0.167929679   0.498312747
  I   -0.746689416  -1.212497957  -0.380656784
  H    1.962140292  -2.064123985   3.853429490
  H    1.876789829  -1.700521773   2.117060684
  H    0.413598712  -1.596110970   3.127628384
  H   -0.694669455   2.044592986   3.666226030
  H   -1.195497519   0.617158358   2.713428655
  H   -1.200988408   2.225405830   1.969386658
  C    1.487824754  -1.441215230   3.096481009
  S    1.923051647   0.270437799   3.535821590
  S    1.014074660   1.400991931   2.084486589
  C   -0.693656281   1.580325199   2.685116212
