12
charge=0 charge_a=0 charge_b=0 selection_a=1-2 selection_b=3-12 scaling=2.0 benchmark_Eint=-0.610 benchmark_unit=kcal/mol group=XH-S
  H    0.178549809  -0.167929679   0.498312747
  I   -0.746689416  -1.212497957  -0.380656784
  H    2.718091347  -0.644623481   5.288539156
  H    2.632740884  -0.281021269   3.552170350
  H    1.169549767  -0.176610466   4.562738050
  H    0.061281600   3.464093490   5.101335696
  H   -0.439546464   2.036658862   4.148538321
  H   -0.445037353   3.644906334   3.404496324
  C    2.243775809  -0.021714726   4.531590675
  S    2.679002702   1.689938303   4.970931256
  S    1.770025715   2.820492435   3.519596255
  C    0.062294774   2.999825703   4.120225878
