12
charge=0 charge_a=0 charge_b=0 selection_a=1-2 selection_b=3-12 scaling=0.85 benchmark_Eint=-2.067 benchmark_unit=kcal/mol group=XH-S
  H    0.178549809  -0.167929679   0.498312747
  I   -0.746689416  -1.212497957  -0.380656784
  H    1.802992701  -2.362966197   3.551301139
  H    1.717642238  -1.999363985   1.814932333
  H    0.254451121  -1.894953182   2.825500033
  H   -0.853817046   1.745750774   3.364097679
  H   -1.354645110   0.318316146   2.411300304
  H   -1.360135999   1.926563618   1.667258307
  C    1.328677163  -1.740057442   2.794352658
  S    1.763904056  -0.028404413   3.233693239
  S    0.854927069   1.102149719   1.782358238
  C   -0.852803872   1.281482987   2.382987861
