12
charge=0 charge_a=0 charge_b=0 selection_a=1-2 selection_b=3-12 scaling=1.1 benchmark_Eint=-4.467 benchmark_unit=kcal/mol group=XH-S
  H    0.178549809  -0.167929679   0.498312747
  I   -0.746689416  -1.212497957  -0.380656784
  H    2.001927189  -1.989413432   3.928961577
  H    1.916576726  -1.625811220   2.192592771
  H    0.453385609  -1.521400417   3.203160471
  H   -0.654882558   2.119303539   3.741758117
  H   -1.155710622   0.691868911   2.788960742
  H   -1.161201511   2.300116383   2.044918745
  C    1.527611651  -1.366504677   3.172013096
  S    1.962838544   0.345148352   3.611353677
  S    1.053861557   1.475702484   2.160018676
  C   -0.653869384   1.655035752   2.760648299
