12
charge=0 charge_a=0 charge_b=0 selection_a=1-2 selection_b=3-12 scaling=1.5 benchmark_Eint=-2.095 benchmark_unit=kcal/mol group=XH-S
  H    0.178549809  -0.167929679   0.498312747
  I   -0.746689416  -1.212497957  -0.380656784
  H    2.320222370  -1.391729010   4.533218279
  H    2.234871908  -1.028126798   2.796849473
  H    0.771680790  -0.923715994   3.807417173
  H   -0.336587376   2.716987962   4.346014819
  H   -0.837415440   1.289553334   3.393217444
  H   -0.842906330   2.897800806   2.649175447
  C    1.845906832  -0.768820254   3.776269798
  S    2.281133726   0.942832774   4.215610379
  S    1.372156738   2.073386906   2.764275378
  C   -0.335574202   2.252720174   3.364905001
