11
charge=0 charge_a=0 charge_b=0 selection_a=1-2 selection_b=3-11 scaling=1.1 benchmark_Eint=-6.403 benchmark_unit=kcal/mol group=XH-S
  H    0.540227290   0.348824840   0.000000000
  I   -0.099753736  -1.210693140   0.000000000
  H   -1.067013573   1.913918750   1.355874607
  H   -0.880730726   3.690553039   1.357877629
  H    0.227748285   2.675189031   2.298518063
  H    0.227748285   2.675189031  -2.298518063
  H   -0.880730726   3.690553039  -1.357877629
  H   -1.067013573   1.913918750  -1.355874607
  C   -0.356800429   2.738201148   1.384558962
  S    0.801208578   2.617089794   0.000000000
  C   -0.356800429   2.738201148  -1.384558962
