11
charge=0 charge_a=0 charge_b=0 selection_a=1-2 selection_b=3-11 scaling=0.9 benchmark_Eint=-5.538 benchmark_unit=kcal/mol group=XH-S
  H    0.540227290   0.348824840   0.000000000
  I   -0.099753736  -1.210693140   0.000000000
  H   -1.114464717   1.501506940   1.355874607
  H   -0.928181870   3.278141229   1.357877629
  H    0.180297141   2.262777221   2.298518063
  H    0.180297141   2.262777221  -2.298518063
  H   -0.928181870   3.278141229  -1.357877629
  H   -1.114464717   1.501506940  -1.355874607
  C   -0.404251573   2.325789338   1.384558962
  S    0.753757434   2.204677984   0.000000000
  C   -0.404251573   2.325789338  -1.384558962
