8
charge=0 charge_a=0 charge_b=0 selection_a=1-2 selection_b=3-8 scaling=1.5 benchmark_Eint=-1.804 benchmark_unit=kcal/mol group=XH-S
  H   -0.146792520  -0.151826058  -0.121559827
  I   -0.961031022  -0.352091381  -1.542289963
  H   -0.866885486  -1.240802725   4.504172324
  H   -0.002646775  -2.306041274   3.385861918
  H   -1.285753746  -1.257547248   2.766736109
  H    0.050323452   0.996283813   3.357019793
  C   -0.482672314  -1.337398361   3.493759241
  S    0.809417850  -0.094354857   3.171622403
