8
charge=0 charge_a=0 charge_b=0 selection_a=1-2 selection_b=3-8 scaling=0.85 benchmark_Eint=-1.603 benchmark_unit=kcal/mol group=XH-S
  H   -0.146792520  -0.151826058  -0.121559827
  I   -0.961031022  -0.352091381  -1.542289963
  H   -1.281243313  -1.265706912   3.077126691
  H   -0.417004602  -2.330945461   1.958816285
  H   -1.700111573  -1.282451435   1.339690476
  H   -0.364034375   0.971379626   1.929974160
  C   -0.897030141  -1.362302548   2.066713608
  S    0.395060023  -0.119259044   1.744576770
