8
charge=0 charge_a=0 charge_b=0 selection_a=1-2 selection_b=3-8 scaling=1.0 benchmark_Eint=-4.039 benchmark_unit=kcal/mol group=XH-S
  H   -0.146792520  -0.151826058  -0.121559827
  I   -0.961031022  -0.352091381  -1.542289963
  H   -1.185622276  -1.259959792   3.406444914
  H   -0.321383565  -2.325198341   2.288134508
  H   -1.604490536  -1.276704315   1.669008699
  H   -0.268413338   0.977126746   2.259292383
  C   -0.801409104  -1.356555428   2.396031831
  S    0.490681060  -0.113511924   2.073894993
