8
charge=0 charge_a=0 charge_b=0 selection_a=1-2 selection_b=3-8 scaling=1.25 benchmark_Eint=-3.183 benchmark_unit=kcal/mol group=XH-S
  H   -0.146792520  -0.151826058  -0.121559827
  I   -0.961031022  -0.352091381  -1.542289963
  H   -1.026253881  -1.250381258   3.955308619
  H   -0.162015170  -2.315619808   2.836998213
  H   -1.445122141  -1.267125782   2.217872404
  H   -0.109044943   0.986705280   2.808156088
  C   -0.642040709  -1.346976894   2.944895536
  S    0.650049455  -0.103933390   2.622758698
