9
charge=0 charge_a=0 charge_b=0 selection_a=1-2 selection_b=3-9 scaling=0.85 benchmark_Eint=-1.621 benchmark_unit=kcal/mol group=XH-S
  H   -0.498514346   0.106069306  -0.084445378
  I   -1.345984336   0.891207522  -1.219795607
  S    0.739853728  -0.103510718   1.771740085
  P    0.257543309   1.936132892   2.033436962
  S   -2.434440135  -0.156401679   2.391669283
  S   -0.305659873   0.025067976   4.823449680
  P   -0.476004939   2.020833492   4.160968005
  P   -1.950495689   1.894771161   2.461111544
  P   -0.649338560  -1.082573570   3.051733112
