9
charge=0 charge_a=0 charge_b=0 selection_a=1-2 selection_b=3-9 scaling=1.5 benchmark_Eint=-1.503 benchmark_unit=kcal/mol group=XH-S
  H   -0.498514346   0.106069306  -0.084445378
  I   -1.345984336   0.891207522  -1.219795607
  S    1.686841080  -0.263777795   3.191176028
  P    1.204530660   1.775865815   3.452872905
  S   -1.487452784  -0.316668756   3.811105226
  S    0.641327478  -0.135199101   6.242885623
  P    0.470982412   1.860566415   5.580403948
  P   -1.003508338   1.734504084   3.880547487
  P    0.297648792  -1.242840647   4.471169055
