9
charge=0 charge_a=0 charge_b=0 selection_a=1-2 selection_b=3-9 scaling=0.95 benchmark_Eint=-3.386 benchmark_unit=kcal/mol group=XH-S
  H   -0.498514346   0.106069306  -0.084445378
  I   -1.345984336   0.891207522  -1.219795607
  S    0.885544090  -0.128167191   1.990114846
  P    0.403233671   1.911476419   2.251811723
  S   -2.288749773  -0.181058152   2.610044044
  S   -0.159969511   0.000411503   5.041824441
  P   -0.330314577   1.996177019   4.379342766
  P   -1.804805327   1.870114688   2.679486305
  P   -0.503648198  -1.107230043   3.270107873
