9
charge=0 charge_a=0 charge_b=0 selection_a=1-2 selection_b=3-9 scaling=1.0 benchmark_Eint=-3.631 benchmark_unit=kcal/mol group=XH-S
  H   -0.498514346   0.106069306  -0.084445378
  I   -1.345984336   0.891207522  -1.219795607
  S    0.958389271  -0.140495428   2.099302226
  P    0.476078852   1.899148182   2.360999103
  S   -2.215904592  -0.193386389   2.719231424
  S   -0.087124330  -0.011916734   5.151011821
  P   -0.257469396   1.983848782   4.488530146
  P   -1.731960146   1.857786451   2.788673685
  P   -0.430803017  -1.119558280   3.379295253
