9
charge=0 charge_a=0 charge_b=0 selection_a=1-2 selection_b=3-9 scaling=2.0 benchmark_Eint=-0.435 benchmark_unit=kcal/mol group=XH-S
  H   -0.498514346   0.106069306  -0.084445378
  I   -1.345984336   0.891207522  -1.219795607
  S    2.415292888  -0.387060162   4.283049830
  P    1.932982469   1.652583448   4.544746707
  S   -0.759000975  -0.439951123   4.902979028
  S    1.369779287  -0.258481468   7.334759425
  P    1.199434221   1.737284048   6.672277750
  P   -0.275056529   1.611221717   4.972421289
  P    1.026100600  -1.366123014   5.563042857
