15
charge=0 charge_a=0 charge_b=0 selection_a=1-2 selection_b=3-15 scaling=1.5 benchmark_Eint=-3.803 benchmark_unit=kcal/mol group=XH-S
  H    0.163303972   0.595462209   0.486647856
  I    0.186802555   1.935970050  -0.565473334
  H   -1.330721564  -0.750016313   4.546057358
  H   -1.612028140   0.209051734   3.083504713
  H   -0.390553072   1.390831699   5.178204026
  H    2.215829954   0.039985434   2.636657715
  H    0.207405514   1.682312024   3.547003433
  H    2.486751976  -1.378476662   3.664244416
  H    2.169924126   0.999826169   4.864351515
  H    1.294806496  -0.382843488   5.516661168
  S    0.233991654  -1.318059303   2.802083187
  C   -0.850523722  -0.178970224   3.755461989
  C    0.061503728   0.916337717   4.307778585
  C    1.400499414   0.260882214   4.642409109
  C    1.792933770  -0.577273091   3.427677756
