15
charge=0 charge_a=0 charge_b=0 selection_a=1-2 selection_b=3-15 scaling=1.05 benchmark_Eint=-7.984 benchmark_unit=kcal/mol group=XH-S
  H    0.163303972   0.595462209   0.486647856
  I    0.186802555   1.935970050  -0.565473334
  H   -1.351927869  -0.175959859   3.851426759
  H   -1.633234445   0.783108188   2.388874114
  H   -0.411759376   1.964888153   4.483573427
  H    2.194623650   0.614041888   1.942027116
  H    0.186199209   2.256368478   2.852372834
  H    2.465545671  -0.804420208   2.969613817
  H    2.148717822   1.573882623   4.169720916
  H    1.273600191   0.191212966   4.822030569
  S    0.212785349  -0.744002849   2.107452588
  C   -0.871730027   0.395086230   3.060831390
  C    0.040297423   1.490394171   3.613147986
  C    1.379293110   0.834938668   3.947778510
  C    1.771727465  -0.003216637   2.733047157
