15
charge=0 charge_a=0 charge_b=0 selection_a=1-2 selection_b=3-15 scaling=0.9 benchmark_Eint=-6.836 benchmark_unit=kcal/mol group=XH-S
  H    0.163303972   0.595462209   0.486647856
  I    0.186802555   1.935970050  -0.565473334
  H   -1.358996637   0.015392292   3.619883226
  H   -1.640303213   0.974460339   2.157330581
  H   -0.418828144   2.156240304   4.252029894
  H    2.187554882   0.805394039   1.710483583
  H    0.179130441   2.447720629   2.620829301
  H    2.458476903  -0.613068057   2.738070284
  H    2.141649054   1.765234774   3.938177383
  H    1.266531423   0.382565117   4.590487036
  S    0.205716581  -0.552650698   1.875909055
  C   -0.878798795   0.586438381   2.829287857
  C    0.033228655   1.681746322   3.381604453
  C    1.372224342   1.026290819   3.716234977
  C    1.764658697   0.188135514   2.501503624
