12
charge=0 charge_a=0 charge_b=0 selection_a=1-2 selection_b=3-12 scaling=0.8 benchmark_Eint=1.189 benchmark_unit=kcal/mol group=XH-S
  H    0.244290487  -0.614757218   0.391420786
  I    0.741799833  -1.826332334  -0.568126761
  H   -0.032162196  -2.041005143   2.162968916
  H    0.319770061  -1.755195755   3.879256772
  H   -1.330199058  -2.043229750   3.373545865
  H   -1.231251055   1.659227354   3.976922405
  H   -2.037415200   0.152395811   4.466076901
  C   -0.392117330  -1.574612459   3.072604545
  C   -0.602458184  -0.102025310   2.918316130
  S   -0.325608057   0.698101136   1.534509424
  C   -1.094172775   0.597458568   4.146646388
  H   -0.384185002   0.445188904   4.960643825
