13
charge=0 charge_a=0 charge_b=0 selection_a=1-9 selection_b=10-13 scaling=1.0 benchmark_Eint=-3.103 benchmark_unit=kcal/mol group=XH-F
  H    0.353249655   2.187422390  -0.723805766
  H    0.232569613   2.543491890  -2.466224691
  H    1.479614893   1.437768785  -1.862648633
  H   -2.978796561   0.332699767  -1.697740302
  H   -2.435349772   1.895156425  -2.326408374
  H   -2.248316966   1.514091096  -0.596150010
  C    0.456369102   1.777767198  -1.725717438
  S   -0.618856790   0.337268995  -1.944906961
  C   -2.222188486   1.108208038  -1.605175217
  P    0.082567944  -0.130745739   1.883422847
  F   -0.736472257   1.211496937   1.578281879
  F    1.445322171   0.233480572   1.135595574
  H   -0.474260317  -0.872997934   0.801009127
