13
charge=0 charge_a=0 charge_b=0 selection_a=1-9 selection_b=10-13 scaling=0.8 benchmark_Eint=0.069 benchmark_unit=kcal/mol group=XH-F
  H    0.353249655   2.187422390  -0.723805766
  H    0.232569613   2.543491890  -2.466224691
  H    1.479614893   1.437768785  -1.862648633
  H   -2.978796561   0.332699767  -1.697740302
  H   -2.435349772   1.895156425  -2.326408374
  H   -2.248316966   1.514091096  -0.596150010
  C    0.456369102   1.777767198  -1.725717438
  S   -0.618856790   0.337268995  -1.944906961
  C   -2.222188486   1.108208038  -1.605175217
  P   -0.219800998  -0.070226907   1.448536469
  F   -1.038841199   1.272015769   1.143395501
  F    1.142953229   0.293999404   0.700709196
  H   -0.776629259  -0.812479102   0.366122749
