15
charge=0 charge_a=0 charge_b=0 selection_a=1-11 selection_b=12-15 scaling=0.9 benchmark_Eint=-6.138 benchmark_unit=kcal/mol group=XH-F
  H    1.820378959  -1.125299702   2.454234082
  H    2.453276139  -0.045903543   1.184066481
  H    1.260488174  -1.302784812   0.756050915
  H   -1.356564860  -1.068742410   1.510338998
  H   -1.899998602   0.310187138   2.505836399
  H   -0.849109657  -0.933021145   3.230940098
  O    0.704774222   1.412933999   2.939215939
  S    0.307968686   0.589750174   1.827294826
  O   -0.016497056   1.220002527   0.564481539
  C    1.589985551  -0.611496269   1.525588362
  C   -1.093470440  -0.394756309   2.319766088
  P   -0.426719386  -0.054659893  -1.641766622
  F   -1.063912224  -0.691992960  -2.969925892
  F   -0.782294718  -1.271961883  -0.641570911
  H   -1.562020788   0.737046447  -1.316531771
