15
charge=0 charge_a=0 charge_b=0 selection_a=1-11 selection_b=12-15 scaling=0.95 benchmark_Eint=-6.807 benchmark_unit=kcal/mol group=XH-F
  H    1.820378959  -1.125299702   2.454234082
  H    2.453276139  -0.045903543   1.184066481
  H    1.260488174  -1.302784812   0.756050915
  H   -1.356564860  -1.068742410   1.510338998
  H   -1.899998602   0.310187138   2.505836399
  H   -0.849109657  -0.933021145   3.230940098
  O    0.704774222   1.412933999   2.939215939
  S    0.307968686   0.589750174   1.827294826
  O   -0.016497056   1.220002527   0.564481539
  C    1.589985551  -0.611496269   1.525588362
  C   -1.093470440  -0.394756309   2.319766088
  P   -0.394815489  -0.065949863  -1.761317172
  F   -1.032008327  -0.703282930  -3.089476442
  F   -0.750390822  -1.283251853  -0.761121462
  H   -1.530116892   0.725756477  -1.436082322
