14
charge=0 charge_a=0 charge_b=0 selection_a=1-10 selection_b=11-14 scaling=1.1 benchmark_Eint=-8.227 benchmark_unit=kcal/mol group=XH-F
  H    1.673954987   0.824171775  -3.384233625
  H    0.491243020  -0.020783658  -4.411849019
  H    0.895895173  -0.665342365  -2.783400184
  H   -2.718682998   0.462803775  -2.218829196
  H   -1.542198085  -0.879053235  -2.201063529
  C    0.765645875   0.227680285  -3.388368144
  S   -0.535139500   1.256797028  -2.660462487
  O   -0.177839506   1.449109181  -1.220004042
  C   -1.859897064   0.022286000  -2.717903134
  H   -2.101688064  -0.184495386  -3.758628650
  P   -0.173001394  -0.397148064   0.949195690
  F    0.286155297  -1.383802555   2.142769428
  F    0.216086152  -1.396551569  -0.261435482
  H    1.037110690   0.345805670   0.936490051
