9
charge=0 charge_a=0 charge_b=0 selection_a=1-4 selection_b=5-9 scaling=0.8 benchmark_Eint=0.046 benchmark_unit=kcal/mol group=XH-F
  C    0.315950133  -1.637450299   0.000000000
  H    0.815403366  -0.697738209   0.000000000
  C   -0.259427185  -2.686214375   0.000000000
  H   -0.763906337  -3.619848858   0.000000000
  H   -0.954306031   1.924327863   0.893892902
  H   -0.954306031   1.924327863  -0.893892902
  H   -1.253802749   0.405423923   0.000000000
  C   -0.716327088   1.351590430   0.000000000
  F    0.654027860   1.083276689   0.000000000
