9
charge=0 charge_a=0 charge_b=0 selection_a=1-4 selection_b=5-9 scaling=0.95 benchmark_Eint=-2.352 benchmark_unit=kcal/mol group=XH-F
  C    0.315950133  -1.637450299   0.000000000
  H    0.815403366  -0.697738209   0.000000000
  C   -0.259427185  -2.686214375   0.000000000
  H   -0.763906337  -3.619848858   0.000000000
  H   -0.984563939   2.258268157   0.893892902
  H   -0.984563939   2.258268157  -0.893892902
  H   -1.284060657   0.739364217   0.000000000
  C   -0.746584996   1.685530724   0.000000000
  F    0.623769952   1.417216983   0.000000000
