9
charge=0 charge_a=0 charge_b=0 selection_a=1-4 selection_b=5-9 scaling=0.85 benchmark_Eint=-1.304 benchmark_unit=kcal/mol group=XH-F
  C    0.315950133  -1.637450299   0.000000000
  H    0.815403366  -0.697738209   0.000000000
  C   -0.259427185  -2.686214375   0.000000000
  H   -0.763906337  -3.619848858   0.000000000
  H   -0.964392001   2.035641295   0.893892902
  H   -0.964392001   2.035641295  -0.893892902
  H   -1.263888719   0.516737355   0.000000000
  C   -0.726413058   1.462903862   0.000000000
  F    0.643941890   1.194590121   0.000000000
