10
charge=0 charge_a=0 charge_b=0 selection_a=1-5 selection_b=6-10 scaling=1.5 benchmark_Eint=-0.230 benchmark_unit=kcal/mol group=XH-F
  C   -0.045358139   2.459433130   0.000000000
  H    0.597315397   1.582811146   0.000000000
  H   -0.673508224   2.451908275   0.888289198
  H   -0.673508224   2.451908275  -0.888289198
  H    0.564968051   3.359502566   0.000000000
  H   -1.193068958  -1.635857378   0.000000000
  H   -0.945791324  -3.162840481  -0.893116157
  H   -0.945791324  -3.162840481   0.893116157
  C   -0.684183058  -2.597835833   0.000000000
  F    0.688911600  -2.375176982   0.000000000
