10
charge=0 charge_a=0 charge_b=0 selection_a=1-5 selection_b=6-10 scaling=0.8 benchmark_Eint=0.465 benchmark_unit=kcal/mol group=XH-F
  C   -0.045358139   2.459433130   0.000000000
  H    0.597315397   1.582811146   0.000000000
  H   -0.673508224   2.451908275   0.888289198
  H   -0.673508224   2.451908275  -0.888289198
  H    0.564968051   3.359502566   0.000000000
  H   -1.235813853   0.211203748   0.000000000
  H   -0.988536218  -1.315779355  -0.893116157
  H   -0.988536218  -1.315779355   0.893116157
  C   -0.726927953  -0.750774707   0.000000000
  F    0.646166705  -0.528115856   0.000000000
