10
charge=0 charge_a=0 charge_b=0 selection_a=1-5 selection_b=6-10 scaling=1.05 benchmark_Eint=-0.850 benchmark_unit=kcal/mol group=XH-F
  C   -0.045358139   2.459433130   0.000000000
  H    0.597315397   1.582811146   0.000000000
  H   -0.673508224   2.451908275   0.888289198
  H   -0.673508224   2.451908275  -0.888289198
  H    0.564968051   3.359502566   0.000000000
  H   -1.220547819  -0.448460940   0.000000000
  H   -0.973270184  -1.975444043  -0.893116157
  H   -0.973270184  -1.975444043   0.893116157
  C   -0.711661919  -1.410439395   0.000000000
  F    0.661432739  -1.187780544   0.000000000
