10
charge=0 charge_a=0 charge_b=0 selection_a=1-5 selection_b=6-10 scaling=2.0 benchmark_Eint=-0.055 benchmark_unit=kcal/mol group=XH-F
  C   -0.045358139   2.459433130   0.000000000
  H    0.597315397   1.582811146   0.000000000
  H   -0.673508224   2.451908275   0.888289198
  H   -0.673508224   2.451908275  -0.888289198
  H    0.564968051   3.359502566   0.000000000
  H   -1.162536891  -2.955186754   0.000000000
  H   -0.915259256  -4.482169857  -0.893116157
  H   -0.915259256  -4.482169857   0.893116157
  C   -0.653650991  -3.917165209   0.000000000
  F    0.719443667  -3.694506358   0.000000000
