11
charge=0 charge_a=0 charge_b=0 selection_a=1-6 selection_b=7-11 scaling=0.8 benchmark_Eint=-0.580 benchmark_unit=kcal/mol group=XH-F
  H    2.082290409  -1.425410896  -0.581971671
  H    2.562434913  -0.072698240   0.451167331
  H    1.302812415   0.163830224  -0.774579257
  H   -0.456148576  -1.394422235   0.387771694
  C    1.727208388  -0.538873935  -0.064845335
  S    0.508337021  -0.974080128   1.219416136
  H   -0.538996739   1.338035574   0.504522707
  H   -0.611653964   2.559577892  -0.803755836
  H   -2.063269838   1.603971425  -0.392727586
  C   -0.976803890   1.594147546  -0.458022858
  F   -0.598886567   0.620965177  -1.384603699
