11
charge=0 charge_a=0 charge_b=0 selection_a=1-6 selection_b=7-11 scaling=0.95 benchmark_Eint=-2.573 benchmark_unit=kcal/mol group=XH-F
  H    2.082290409  -1.425410896  -0.581971671
  H    2.562434913  -0.072698240   0.451167331
  H    1.302812415   0.163830224  -0.774579257
  H   -0.456148576  -1.394422235   0.387771694
  C    1.727208388  -0.538873935  -0.064845335
  S    0.508337021  -0.974080128   1.219416136
  H   -0.895565299   1.423748377   0.390143125
  H   -0.968222524   2.645290695  -0.918135418
  H   -2.419838398   1.689684228  -0.507107168
  C   -1.333372450   1.679860349  -0.572402440
  F   -0.955455127   0.706677980  -1.498983281
