11
charge=0 charge_a=0 charge_b=0 selection_a=1-6 selection_b=7-11 scaling=1.5 benchmark_Eint=-1.080 benchmark_unit=kcal/mol group=XH-F
  H    2.082290409  -1.425410896  -0.581971671
  H    2.562434913  -0.072698240   0.451167331
  H    1.302812415   0.163830224  -0.774579257
  H   -0.456148576  -1.394422235   0.387771694
  C    1.727208388  -0.538873935  -0.064845335
  S    0.508337021  -0.974080128   1.219416136
  H   -2.202983349   1.738028658  -0.029248679
  H   -2.275640574   2.959570976  -1.337527222
  H   -3.727256448   2.003964508  -0.926498972
  C   -2.640790500   1.994140630  -0.991794244
  F   -2.262873177   1.020958260  -1.918375085
