11
charge=0 charge_a=0 charge_b=0 selection_a=1-6 selection_b=7-11 scaling=2.0 benchmark_Eint=-0.390 benchmark_unit=kcal/mol group=XH-F
  H    2.082290409  -1.425410896  -0.581971671
  H    2.562434913  -0.072698240   0.451167331
  H    1.302812415   0.163830224  -0.774579257
  H   -0.456148576  -1.394422235   0.387771694
  C    1.727208388  -0.538873935  -0.064845335
  S    0.508337021  -0.974080128   1.219416136
  H   -3.391545213   2.023738003  -0.410513955
  H   -3.464202438   3.245280321  -1.718792498
  H   -4.915818312   2.289673854  -1.307764248
  C   -3.829352364   2.279849975  -1.373059520
  F   -3.451435041   1.306667606  -2.299640361
