11
charge=0 charge_a=0 charge_b=0 selection_a=1-6 selection_b=7-11 scaling=1.05 benchmark_Eint=-2.560 benchmark_unit=kcal/mol group=XH-F
  H    2.082290409  -1.425410896  -0.581971671
  H    2.562434913  -0.072698240   0.451167331
  H    1.302812415   0.163830224  -0.774579257
  H   -0.456148576  -1.394422235   0.387771694
  C    1.727208388  -0.538873935  -0.064845335
  S    0.508337021  -0.974080128   1.219416136
  H   -1.133277671   1.480890247   0.313890069
  H   -1.205934896   2.702432565  -0.994388474
  H   -2.657550770   1.746826098  -0.583360224
  C   -1.571084822   1.737002219  -0.648655496
  F   -1.193167499   0.763819850  -1.575236337
