11
charge=0 charge_a=0 charge_b=0 selection_a=1-6 selection_b=7-11 scaling=1.1 benchmark_Eint=-2.419 benchmark_unit=kcal/mol group=XH-F
  H    2.082290409  -1.425410896  -0.581971671
  H    2.562434913  -0.072698240   0.451167331
  H    1.302812415   0.163830224  -0.774579257
  H   -0.456148576  -1.394422235   0.387771694
  C    1.727208388  -0.538873935  -0.064845335
  S    0.508337021  -0.974080128   1.219416136
  H   -1.252133858   1.509461181   0.275763542
  H   -1.324791083   2.731003499  -1.032515001
  H   -2.776406957   1.775397032  -0.621486751
  C   -1.689941009   1.765573153  -0.686782023
  F   -1.312023686   0.792390784  -1.613362864
