10
charge=0 charge_a=0 charge_b=0 selection_a=1-6 selection_b=7-10 scaling=1.05 benchmark_Eint=-4.389 benchmark_unit=kcal/mol group=XH-F
  H   -1.724348231  -0.027355360  -1.474026193
  H   -1.296435492  -1.415159708  -2.484097898
  H   -1.572301525   0.160027650  -3.243538945
  H    0.527790206   1.283050936  -1.949835639
  C   -1.185008230  -0.341291707  -2.362021642
  S    0.601246922  -0.037729081  -2.172892147
  P    0.473098828  -1.082736241   0.973353285
  F   -0.564505714   0.138476479   1.053244000
  F    0.552219869  -1.390272255   2.548530499
  H    1.651144555  -0.280669939   0.935604948
