10
charge=0 charge_a=0 charge_b=0 selection_a=1-6 selection_b=7-10 scaling=1.0 benchmark_Eint=-4.514 benchmark_unit=kcal/mol group=XH-F
  H   -1.724348231  -0.027355360  -1.474026193
  H   -1.296435492  -1.415159708  -2.484097898
  H   -1.572301525   0.160027650  -3.243538945
  H    0.527790206   1.283050936  -1.949835639
  C   -1.185008230  -0.341291707  -2.362021642
  S    0.601246922  -0.037729081  -2.172892147
  P    0.417868232  -1.090632995   0.853007085
  F   -0.619736310   0.130579725   0.932897800
  F    0.496989273  -1.398169009   2.428184299
  H    1.595913959  -0.288566693   0.815258748
