10
charge=0 charge_a=0 charge_b=0 selection_a=1-6 selection_b=7-10 scaling=0.95 benchmark_Eint=-4.373 benchmark_unit=kcal/mol group=XH-F
  H   -1.724348231  -0.027355360  -1.474026193
  H   -1.296435492  -1.415159708  -2.484097898
  H   -1.572301525   0.160027650  -3.243538945
  H    0.527790206   1.283050936  -1.949835639
  C   -1.185008230  -0.341291707  -2.362021642
  S    0.601246922  -0.037729081  -2.172892147
  P    0.362637636  -1.098529749   0.732660885
  F   -0.674966906   0.122682971   0.812551600
  F    0.441758677  -1.406065763   2.307838099
  H    1.540683363  -0.296463447   0.694912548
