10
charge=0 charge_a=0 charge_b=0 selection_a=1-6 selection_b=7-10 scaling=1.5 benchmark_Eint=-1.607 benchmark_unit=kcal/mol group=XH-F
  H   -1.724348231  -0.027355360  -1.474026193
  H   -1.296435492  -1.415159708  -2.484097898
  H   -1.572301525   0.160027650  -3.243538945
  H    0.527790206   1.283050936  -1.949835639
  C   -1.185008230  -0.341291707  -2.362021642
  S    0.601246922  -0.037729081  -2.172892147
  P    0.970174192  -1.011665452   2.056469082
  F   -0.067430349   0.209547268   2.136359796
  F    1.049295234  -1.319201466   3.631646296
  H    2.148219920  -0.209599150   2.018720744
