10
charge=0 charge_a=0 charge_b=0 selection_a=1-6 selection_b=7-10 scaling=0.85 benchmark_Eint=-2.450 benchmark_unit=kcal/mol group=XH-F
  H   -1.724348231  -0.027355360  -1.474026193
  H   -1.296435492  -1.415159708  -2.484097898
  H   -1.572301525   0.160027650  -3.243538945
  H    0.527790206   1.283050936  -1.949835639
  C   -1.185008230  -0.341291707  -2.362021642
  S    0.601246922  -0.037729081  -2.172892147
  P    0.252176444  -1.114323258   0.491968486
  F   -0.785428098   0.106889462   0.571859201
  F    0.331297485  -1.421859272   2.067145700
  H    1.430222171  -0.312256956   0.454220149
