11
charge=0 charge_a=0 charge_b=0 selection_a=1-7 selection_b=8-11 scaling=1.5 benchmark_Eint=-2.594 benchmark_unit=kcal/mol group=XH-F
  H   -2.892878337   1.383441369  -2.418754018
  H   -2.883689658   0.154943136  -3.716907856
  H   -2.338074383  -0.283141126  -2.068670202
  C   -2.395464291   0.502439172  -2.815105902
  O   -1.041985075   0.865978670  -3.236513666
  C   -0.263382111   1.272213617  -2.307293766
  N    0.465879199   1.635454896  -1.488247684
  P    1.321391539  -0.892400022   1.479869956
  F   -0.066210704  -1.244641668   0.737400542
  F    1.074131406  -1.760283578   2.806378690
  H    0.873220769   0.337856450   2.038613046
