11
charge=0 charge_a=0 charge_b=0 selection_a=1-7 selection_b=8-11 scaling=1.1 benchmark_Eint=-4.152 benchmark_unit=kcal/mol group=XH-F
  H    0.494811376   0.550697331  -2.503591792
  H   -1.088910315   0.712912164  -3.299676259
  H   -0.004417460   2.148124526  -3.136713735
  C   -0.340983370   1.217048807  -2.699503409
  N   -0.946875580   1.516628094  -1.367688214
  O   -0.639297514   2.558880177  -0.825116373
  O   -1.687345249   0.667201539  -0.894201454
  P    0.082731649  -0.936695695   1.291861197
  F    1.211204440  -1.259342162   2.378782014
  F    1.050745225  -0.557981251   0.063499384
  H   -0.132578650   0.408465517   1.710939140
