11
charge=0 charge_a=0 charge_b=0 selection_a=1-7 selection_b=8-11 scaling=2.0 benchmark_Eint=-0.616 benchmark_unit=kcal/mol group=XH-F
  H    0.494811376   0.550697331  -2.503591792
  H   -1.088910315   0.712912164  -3.299676259
  H   -0.004417460   2.148124526  -3.136713735
  C   -0.340983370   1.217048807  -2.699503409
  N   -0.946875580   1.516628094  -1.367688214
  O   -0.639297514   2.558880177  -0.825116373
  O   -1.687345249   0.667201539  -0.894201454
  P    0.537586616  -1.843796353   3.392208523
  F    1.666059407  -2.166442820   4.479129340
  F    1.505600192  -1.465081909   2.163846710
  H    0.322276317  -0.498635141   3.811286466
