18
charge=0 charge_a=0 charge_b=0 selection_a=1-14 selection_b=15-18 scaling=0.8 benchmark_Eint=-0.711 benchmark_unit=kcal/mol group=XH-F
  H   -0.663728890   3.263753919  -1.414840815
  H    0.576073529   2.076883209  -1.824634070
  H   -0.558423244   2.644871198  -3.062421256
  H   -2.871004157  -1.409115866  -1.554167283
  H    0.427154943  -1.230761921  -3.337390312
  H   -2.608629743  -1.755496954  -3.267512425
  H   -1.476461464  -2.367506838  -2.071650710
  H    0.415734197   0.515390665  -3.590633923
  H   -0.670729285  -0.532266655  -4.508849880
  P   -1.657091804   1.053428762  -1.516976764
  C   -1.277539280  -0.271518272  -2.480500321
  C   -2.109861972  -1.514543842  -2.325153549
  C   -0.213191310  -0.366359546  -3.529510681
  C   -0.453315343   2.378110667  -2.011636524
  P    0.532654254  -0.603865285  -0.247812866
  F    1.591368449  -1.132583262   0.834646306
  F    1.482034213   0.458123964  -0.981581057
  H   -0.097517556   0.335107364   0.621042113
