14
charge=0 charge_a=0 charge_b=0 selection_a=1-10 selection_b=11-14 scaling=0.8 benchmark_Eint=-0.148 benchmark_unit=kcal/mol group=XH-F
  H   -0.825244058  -0.118513189  -2.181507194
  H   -1.698193101   1.218086861  -2.959199371
  H   -0.718970658   0.147640958  -3.935121770
  H    1.417595282   3.221757643  -3.683304270
  H    0.735247260   2.046786054  -4.828442683
  C   -0.773578057   0.634357680  -2.958361404
  C    0.392543799   1.555819106  -2.783477778
  S    1.392719271   1.486587404  -1.501570006
  C    0.578919030   2.562107583  -3.877356036
  H   -0.332033337   3.154460180  -3.994934573
  P   -0.034695024   0.081489386   0.529066059
  F   -0.329983516  -0.795570055   1.845363712
  F   -0.372958056  -1.056442797  -0.549837250
  H    1.374536730  -0.133282637   0.543236786
