20
charge=0 charge_a=0 charge_b=0 selection_a=1-16 selection_b=17-20 scaling=0.8 benchmark_Eint=-0.676 benchmark_unit=kcal/mol group=XH-F
  H   -1.099440549   3.990597975   0.443758536
  H    0.107067526   2.717435521   0.713491310
  H    0.215216736   3.758823496  -0.728525441
  H    1.436342245   0.801186735  -3.906365169
  H   -3.729735361   0.590574986  -0.547611213
  H    1.284483672  -0.341623619  -2.556658274
  H    0.058466397  -0.319381159  -3.845922413
  H   -3.782348508  -0.858068361  -1.575614402
  O   -2.130687309   0.300657341  -1.839265276
  P   -0.777427327   0.909381380  -1.189348924
  O   -1.327767550   2.370873676  -0.766868320
  C   -0.464906717   3.255601141  -0.042526775
  O    0.000255294   1.306805107  -2.556941005
  C    0.732867298   0.295702482  -3.251215009
  C   -3.141743245  -0.222487154  -0.971332882
  H   -2.702673916  -0.812087156  -0.165331888
  P    0.189848190  -0.481044001   1.026995841
  F    0.100820004   0.938956403   1.766602548
  F    0.936107328  -1.269436084   2.215717684
  H    1.374753040  -0.203313484   0.284439399
