13
charge=0 charge_a=0 charge_b=0 selection_a=1-9 selection_b=10-13 scaling=2.0 benchmark_Eint=-1.542 benchmark_unit=kcal/mol group=XH-F
  H   -1.555218336   3.280517802  -1.121951360
  H   -0.612681212   2.455318645   0.078808194
  H   -0.923049042   1.181131731  -3.720677799
  H   -2.429051738   0.668594692  -2.977993807
  H   -2.089153558   2.399289358  -3.165788225
  O   -0.364178572   0.358379637  -1.248179044
  C   -0.966077393   1.363578052  -1.603947249
  N   -1.061526583   2.462080092  -0.822538061
  C   -1.649587266   1.428070868  -2.949615068
  P    1.432557584  -1.529193854   2.531403974
  F    1.596632456   0.071637385   2.736255926
  F    2.227295237  -1.952938370   3.870011528
  H    2.550775624  -1.687370383   1.670314992
