9
charge=0 charge_a=0 charge_b=0 selection_a=1-4 selection_b=5-9 scaling=1.1 benchmark_Eint=-2.760 benchmark_unit=kcal/mol group=XH-F
  N   -0.123190330   2.110527190   0.000000000
  H    0.558813216   1.361103936   0.000000000
  H    0.057236894   2.684121101  -0.813985719
  H    0.057236894   2.684121101   0.813985719
  H   -0.906339307  -2.048385407   0.893151234
  H   -1.252662797  -0.534174622   0.000000000
  H   -0.906339307  -2.048385407  -0.893151234
  C   -0.690704447  -1.464978369   0.000000000
  F    0.672466331  -1.150463583   0.000000000
