9
charge=0 charge_a=0 charge_b=0 selection_a=1-4 selection_b=5-9 scaling=2.0 benchmark_Eint=-0.439 benchmark_unit=kcal/mol group=XH-F
  N   -0.123190330   2.110527190   0.000000000
  H    0.558813216   1.361103936   0.000000000
  H    0.057236894   2.684121101  -0.813985719
  H    0.057236894   2.684121101   0.813985719
  H   -0.813350394  -4.103304286   0.893151234
  H   -1.159673884  -2.589093501   0.000000000
  H   -0.813350394  -4.103304286  -0.893151234
  C   -0.597715534  -3.519897248   0.000000000
  F    0.765455244  -3.205382462   0.000000000
