9
charge=0 charge_a=0 charge_b=0 selection_a=1-4 selection_b=5-9 scaling=1.0 benchmark_Eint=-3.033 benchmark_unit=kcal/mol group=XH-F
  N   -0.123190330   2.110527190   0.000000000
  H    0.558813216   1.361103936   0.000000000
  H    0.057236894   2.684121101  -0.813985719
  H    0.057236894   2.684121101   0.813985719
  H   -0.916671408  -1.820061087   0.893151234
  H   -1.262994898  -0.305850302   0.000000000
  H   -0.916671408  -1.820061087  -0.893151234
  C   -0.701036548  -1.236654049   0.000000000
  F    0.662134230  -0.922139263   0.000000000
