12
charge=0 charge_a=0 charge_b=0 selection_a=1-7 selection_b=8-12 scaling=1.25 benchmark_Eint=-2.192 benchmark_unit=kcal/mol group=XH-F
  N   -0.762680266   0.657120961   1.269302631
  H   -0.160490256  -0.155763922   1.265651164
  H   -1.193948935   0.709510332   2.182080338
  C    0.012763010   1.865373931   0.988817467
  H   -0.654275639   2.726515138   0.961290449
  H    0.811540614   2.078466282   1.708394270
  H    0.470675110   1.775094247   0.004516708
  H   -0.380760798  -2.244324827  -2.339231634
  H   -0.736138081  -0.675528718  -1.549677727
  H    0.465801772  -0.766952734  -2.877287079
  C    0.028020490  -1.285387233  -2.026113573
  F    1.039105260  -1.523341356  -1.089816015
