12
charge=0 charge_a=0 charge_b=0 selection_a=1-7 selection_b=8-12 scaling=0.85 benchmark_Eint=-1.997 benchmark_unit=kcal/mol group=XH-F
  N   -0.762680266   0.657120961   1.269302631
  H   -0.160490256  -0.155763922   1.265651164
  H   -1.193948935   0.709510332   2.182080338
  C    0.012763010   1.865373931   0.988817467
  H   -0.654275639   2.726515138   0.961290449
  H    0.811540614   2.078466282   1.708394270
  H    0.470675110   1.775094247   0.004516708
  H   -0.764631363  -1.806700048  -1.585482137
  H   -1.120008646  -0.237903939  -0.795928230
  H    0.081931207  -0.329327955  -2.123537582
  C   -0.355850075  -0.847762454  -1.272364076
  F    0.655234695  -1.085716577  -0.336066518
