12
charge=0 charge_a=0 charge_b=0 selection_a=1-7 selection_b=8-12 scaling=0.9 benchmark_Eint=-2.877 benchmark_unit=kcal/mol group=XH-F
  N   -0.762680266   0.657120961   1.269302631
  H   -0.160490256  -0.155763922   1.265651164
  H   -1.193948935   0.709510332   2.182080338
  C    0.012763010   1.865373931   0.988817467
  H   -0.654275639   2.726515138   0.961290449
  H    0.811540614   2.078466282   1.708394270
  H    0.470675110   1.775094247   0.004516708
  H   -0.716647542  -1.861403145  -1.679700824
  H   -1.072024825  -0.292607036  -0.890146917
  H    0.129915028  -0.384031052  -2.217756269
  C   -0.307866254  -0.902465551  -1.366582763
  F    0.703218516  -1.140419674  -0.430285205
