14
charge=0 charge_a=0 charge_b=0 selection_a=1-12 selection_b=13-14 scaling=1.05 benchmark_Eint=-0.878 benchmark_unit=kcal/mol group=XH-F
  C   -0.770433935  -0.098734360   1.787212509
  H   -0.999509895   0.825247316   2.314866231
  H    0.308205266  -0.185148665   1.671201364
  H   -1.131013647  -0.923162741   2.399302585
  C   -1.527487444  -0.104974283   0.474765435
  O   -2.742692009  -0.027728989   0.437882077
  N   -0.756458905  -0.201802406  -0.643467543
  H    0.239041788  -0.256040590  -0.533109711
  C   -1.311716481  -0.216017231  -1.981446719
  H   -2.392265510  -0.166348110  -1.890528681
  H   -0.965672116   0.640030235  -2.561679780
  H   -1.041491040  -1.131187452  -2.508822962
  F    2.967746097   0.895017193   0.230367571
  F    2.733842031  -0.408898201  -0.212595617
