17
charge=0 charge_a=0 charge_b=0 selection_a=1-12 selection_b=13-17 scaling=0.9 benchmark_Eint=-3.698 benchmark_unit=kcal/mol group=XH-F
  C   -0.356197040  -0.831684970   1.692092155
  H   -0.543483053  -0.057079167   2.434262414
  H    0.712116501  -0.892463346   1.495780427
  H   -0.697402542  -1.774891316   2.113999962
  C   -1.180524027  -0.529244168   0.456582442
  O   -2.398767142  -0.473078090   0.490566694
  N   -0.477850543  -0.316100268  -0.684011955
  H    0.524679385  -0.380589340  -0.666249776
  C   -1.146822113  -0.032247207  -1.938370549
  H   -1.811702648   0.823818360  -1.833938578
  H   -0.396526437   0.185513697  -2.693782220
  H   -1.748260959  -0.880013251  -2.266841588
  H    2.727743839   2.242407382  -0.272777414
  H    1.080289547   1.820247866   0.282814848
  H    2.492437536   1.466158849   1.320909892
  C    2.130050125   1.535860210   0.298028822
  F    2.253278900   0.275223869  -0.298541740
