10
charge=0 charge_a=0 charge_b=0 selection_a=1-8 selection_b=9-10 scaling=0.9 benchmark_Eint=-1.444 benchmark_unit=kcal/mol group=XH-F
  C    2.426914981  -1.000114078  -0.312034772
  O    1.635234765  -1.883035583  -0.540557396
  O    2.044485941   0.257976049   0.003270394
  H    1.077165591   0.253917262  -0.004358153
  C    3.916588652  -1.125928396  -0.333647894
  H    4.191425357  -2.140948050  -0.588274120
  H    4.329191877  -0.430471283  -1.059125962
  H    4.317574678  -0.859947617   0.640356741
  F   -0.665569500  -0.826342221  -0.288304173
  F   -1.892371672  -0.162634302  -0.128336671
