13
charge=0 charge_a=0 charge_b=0 selection_a=1-8 selection_b=9-13 scaling=1.05 benchmark_Eint=-6.836 benchmark_unit=kcal/mol group=XH-F
  C    0.117051709   1.274442082   0.000000000
  O    1.166609596   0.677312967   0.000000000
  O   -1.076602854   0.660704137   0.000000000
  H   -0.934016426  -0.304069627   0.000000000
  C   -0.022726243   2.770613513   0.000000000
  H    0.958583891   3.231480425   0.000000000
  H   -0.585458259   3.087729203  -0.876949085
  H   -0.585458259   3.087729203   0.876949085
  H    0.823180623  -3.270627582  -0.894521766
  H    1.343849645  -1.803383298   0.000000000
  H    0.823180623  -3.270627582   0.894521766
  C    0.687699089  -2.668320512   0.000000000
  F   -0.642700146  -2.197787132   0.000000000
