12
charge=0 charge_a=0 charge_b=0 selection_a=1-8 selection_b=9-12 scaling=1.05 benchmark_Eint=-7.603 benchmark_unit=kcal/mol group=XH-F
  H   -0.770163454   1.601593004   0.225053304
  H   -1.585668217   1.153332027  -3.663993548
  H   -2.823459128   1.891023938  -2.616371242
  H   -1.379769092   2.802466091  -3.019864446
  O   -0.427866501   0.216490318  -1.584002927
  C   -1.067650204   1.243768147  -1.602530185
  O   -1.237699597   2.015255504  -0.519423979
  C   -1.755721195   1.801712721  -2.812151365
  P    0.614271751  -1.155337487   0.665567730
  F    0.304464518   0.299863352   1.325195266
  F    1.547356197  -1.694400455   1.854502430
  H    1.687962176  -0.710338962  -0.153319550
