12
charge=0 charge_a=0 charge_b=0 selection_a=1-8 selection_b=9-12 scaling=0.95 benchmark_Eint=-7.557 benchmark_unit=kcal/mol group=XH-F
  H   -0.770163454   1.601593004   0.225053304
  H   -1.585668217   1.153332027  -3.663993548
  H   -2.823459128   1.891023938  -2.616371242
  H   -1.379769092   2.802466091  -3.019864446
  O   -0.427866501   0.216490318  -1.584002927
  C   -1.067650204   1.243768147  -1.602530185
  O   -1.237699597   2.015255504  -0.519423979
  C   -1.755721195   1.801712721  -2.812151365
  P    0.511926229  -1.031363235   0.560792306
  F    0.202118996   0.423837604   1.220419842
  F    1.445010675  -1.570426203   1.749727006
  H    1.585616654  -0.586364710  -0.258094976
