12
charge=0 charge_a=0 charge_b=0 selection_a=1-8 selection_b=9-12 scaling=1.1 benchmark_Eint=-7.276 benchmark_unit=kcal/mol group=XH-F
  H   -0.770163454   1.601593004   0.225053304
  H   -1.585668217   1.153332027  -3.663993548
  H   -2.823459128   1.891023938  -2.616371242
  H   -1.379769092   2.802466091  -3.019864446
  O   -0.427866501   0.216490318  -1.584002927
  C   -1.067650204   1.243768147  -1.602530185
  O   -1.237699597   2.015255504  -0.519423979
  C   -1.755721195   1.801712721  -2.812151365
  P    0.665444511  -1.217324614   0.717955443
  F    0.355637278   0.237876225   1.377582979
  F    1.598528957  -1.756387582   1.906890143
  H    1.739134936  -0.772326089  -0.100931838
