13
charge=0 charge_a=0 charge_b=0 selection_a=1-8 selection_b=9-13 scaling=0.8 benchmark_Eint=-0.130 benchmark_unit=kcal/mol group=XH-F
  C   -0.278988201   2.423003188   0.037584958
  O    0.654013574   1.687386775  -0.150914895
  O   -1.536810656   1.964972160   0.234945272
  H   -1.500782065   0.999108011   0.190650171
  C   -0.220997135   3.922032347   0.086783040
  H    0.797967130   4.253401615  -0.077686712
  H   -0.879018504   4.341780335  -0.672797910
  H   -0.577509032   4.272971766   1.054237584
  C    0.156136034  -1.257747919  -0.009815826
  F   -1.061099749  -0.706050184   0.073182587
  F    0.717687676  -0.910807900  -1.150448236
  F    0.021704216  -2.577683810   0.036852562
  F    0.890068285  -0.852593864   1.008106524
