13
charge=0 charge_a=0 charge_b=0 selection_a=1-8 selection_b=9-13 scaling=0.9 benchmark_Eint=-1.903 benchmark_unit=kcal/mol group=XH-F
  C   -0.278988201   2.423003188   0.037584958
  O    0.654013574   1.687386775  -0.150914895
  O   -1.536810656   1.964972160   0.234945272
  H   -1.500782065   0.999108011   0.190650171
  C   -0.220997135   3.922032347   0.086783040
  H    0.797967130   4.253401615  -0.077686712
  H   -0.879018504   4.341780335  -0.672797910
  H   -0.577509032   4.272971766   1.054237584
  C    0.211096324  -1.470892694  -0.024499274
  F   -1.006139460  -0.919194959   0.058499139
  F    0.772647966  -1.123952675  -1.165131684
  F    0.076664506  -2.790828585   0.022169114
  F    0.945028574  -1.065738639   0.993423076
