13
charge=0 charge_a=0 charge_b=0 selection_a=1-8 selection_b=9-13 scaling=1.25 benchmark_Eint=-1.403 benchmark_unit=kcal/mol group=XH-F
  C   -0.278988201   2.423003188   0.037584958
  O    0.654013574   1.687386775  -0.150914895
  O   -1.536810656   1.964972160   0.234945272
  H   -1.500782065   0.999108011   0.190650171
  C   -0.220997135   3.922032347   0.086783040
  H    0.797967130   4.253401615  -0.077686712
  H   -0.879018504   4.341780335  -0.672797910
  H   -0.577509032   4.272971766   1.054237584
  C    0.403457337  -2.216899404  -0.075891342
  F   -0.813778446  -1.665201669   0.007107071
  F    0.965008979  -1.869959385  -1.216523752
  F    0.269025519  -3.536835295  -0.029222954
  F    1.137389588  -1.811745349   0.942031008
