13
charge=0 charge_a=0 charge_b=0 selection_a=1-8 selection_b=9-13 scaling=2.0 benchmark_Eint=-0.221 benchmark_unit=kcal/mol group=XH-F
  C   -0.278988201   2.423003188   0.037584958
  O    0.654013574   1.687386775  -0.150914895
  O   -1.536810656   1.964972160   0.234945272
  H   -1.500782065   0.999108011   0.190650171
  C   -0.220997135   3.922032347   0.086783040
  H    0.797967130   4.253401615  -0.077686712
  H   -0.879018504   4.341780335  -0.672797910
  H   -0.577509032   4.272971766   1.054237584
  C    0.815659508  -3.815485212  -0.186017202
  F   -0.401576275  -3.263787477  -0.103018789
  F    1.377211150  -3.468545193  -1.326649612
  F    0.681227690  -5.135421103  -0.139348814
  F    1.549591759  -3.410331157   0.831905148
