8
charge=0 charge_a=0 charge_b=0 selection_a=1-6 selection_b=7-8 scaling=1.25 benchmark_Eint=-0.500 benchmark_unit=kcal/mol group=XH-F
  O   -0.803544382   1.332223447  -1.496330359
  H   -0.649021950   0.892695201  -0.657948265
  C   -0.186524404   0.575912051  -2.528542508
  H   -0.385830120   1.095618354  -3.462630606
  H    0.896677037   0.506846147  -2.395771105
  H   -0.598960451  -0.434302933  -2.600469321
  F    0.323320305  -1.496296968   0.885623189
  F    1.693754632  -1.402346425   0.633556511
