11
charge=0 charge_a=0 charge_b=0 selection_a=1-6 selection_b=7-11 scaling=1.0 benchmark_Eint=-4.134 benchmark_unit=kcal/mol group=XH-F
  O   -0.651763456   0.859061897  -0.821633806
  H   -0.380024496  -0.015871852  -0.527350537
  C   -0.239226524   1.045332194  -2.165698346
  H   -0.547568122   2.045796722  -2.461358096
  H    0.846772222   0.972653740  -2.276617859
  H   -0.709606952   0.326408629  -2.842774540
  H    0.251131651   0.586151811   1.720511618
  H   -0.188297982  -0.799437515   2.765520540
  H    1.524186969  -0.511682186   2.337688498
  C    0.493190744  -0.436166628   1.999942601
  F    0.346055585  -1.246157594   0.864570673
