11
charge=0 charge_a=0 charge_b=0 selection_a=1-6 selection_b=7-11 scaling=1.1 benchmark_Eint=-3.810 benchmark_unit=kcal/mol group=XH-F
  O   -0.651763456   0.859061897  -0.821633806
  H   -0.380024496  -0.015871852  -0.527350537
  C   -0.239226524   1.045332194  -2.165698346
  H   -0.547568122   2.045796722  -2.461358096
  H    0.846772222   0.972653740  -2.276617859
  H   -0.709606952   0.326408629  -2.842774540
  H    0.323739659   0.463123237   1.859703739
  H   -0.115689974  -0.922466089   2.904712661
  H    1.596794977  -0.634710760   2.476880619
  C    0.565798752  -0.559195202   2.139134722
  F    0.418663593  -1.369186168   1.003762794
