11
charge=0 charge_a=0 charge_b=0 selection_a=1-6 selection_b=7-11 scaling=1.5 benchmark_Eint=-1.771 benchmark_unit=kcal/mol group=XH-F
  O   -0.651763456   0.859061897  -0.821633806
  H   -0.380024496  -0.015871852  -0.527350537
  C   -0.239226524   1.045332194  -2.165698346
  H   -0.547568122   2.045796722  -2.461358096
  H    0.846772222   0.972653740  -2.276617859
  H   -0.709606952   0.326408629  -2.842774540
  H    0.614171692  -0.028991060   2.416472223
  H    0.174742058  -1.414580386   3.461481145
  H    1.887227010  -1.126825057   3.033649103
  C    0.856230784  -1.051309499   2.695903206
  F    0.709095626  -1.861300465   1.560531278
