11
charge=0 charge_a=0 charge_b=0 selection_a=1-6 selection_b=7-11 scaling=0.85 benchmark_Eint=-2.718 benchmark_unit=kcal/mol group=XH-F
  O   -0.651763456   0.859061897  -0.821633806
  H   -0.380024496  -0.015871852  -0.527350537
  C   -0.239226524   1.045332194  -2.165698346
  H   -0.547568122   2.045796722  -2.461358096
  H    0.846772222   0.972653740  -2.276617859
  H   -0.709606952   0.326408629  -2.842774540
  H    0.142219639   0.770694672   1.511723436
  H   -0.297209994  -0.614894654   2.556732358
  H    1.415274957  -0.327139325   2.128900316
  C    0.384278732  -0.251623767   1.791154420
  F    0.237143573  -1.061614733   0.655782492
