11
charge=0 charge_a=0 charge_b=0 selection_a=1-6 selection_b=7-11 scaling=1.25 benchmark_Eint=-0.688 benchmark_unit=kcal/mol group=XH-F
  O   -0.756718617   1.277987001  -1.412937910
  H   -0.588776896   1.071719275  -0.491380046
  C   -0.218561446   0.240510301  -2.219749535
  H   -0.408660002   0.514260066  -3.254710636
  H    0.861262281   0.132367295  -2.084927087
  H   -0.698617297  -0.722721751  -2.025192141
  C    0.999044646  -2.068740178   1.351156876
  F    0.675324188  -0.786868829   1.512221806
  F   -0.032226636  -2.716919214   0.832075000
  F    1.309177993  -2.591146765   2.525947002
  F    2.037158962  -2.157331672   0.534595676
