11
charge=0 charge_a=0 charge_b=0 selection_a=1-6 selection_b=7-11 scaling=0.9 benchmark_Eint=-0.953 benchmark_unit=kcal/mol group=XH-F
  O   -0.756718617   1.277987001  -1.412937910
  H   -0.588776896   1.071719275  -0.491380046
  C   -0.218561446   0.240510301  -2.219749535
  H   -0.408660002   0.514260066  -3.254710636
  H    0.861262281   0.132367295  -2.084927087
  H   -0.698617297  -0.722721751  -2.025192141
  C    0.645096342  -1.548335509   0.790148357
  F    0.321375884  -0.266464160   0.951213288
  F   -0.386174940  -2.196514545   0.271066482
  F    0.955229689  -2.070742096   1.964938483
  F    1.683210658  -1.636927003  -0.026412843
