11
charge=0 charge_a=0 charge_b=0 selection_a=1-6 selection_b=7-11 scaling=0.95 benchmark_Eint=-1.152 benchmark_unit=kcal/mol group=XH-F
  O   -0.756718617   1.277987001  -1.412937910
  H   -0.588776896   1.071719275  -0.491380046
  C   -0.218561446   0.240510301  -2.219749535
  H   -0.408660002   0.514260066  -3.254710636
  H    0.861262281   0.132367295  -2.084927087
  H   -0.698617297  -0.722721751  -2.025192141
  C    0.695660386  -1.622679033   0.870292431
  F    0.371939928  -0.340807684   1.031357362
  F   -0.335610896  -2.270858069   0.351210556
  F    1.005793733  -2.145085620   2.045082557
  F    1.733774702  -1.711270527   0.053731231
