11
charge=0 charge_a=0 charge_b=0 selection_a=1-6 selection_b=7-11 scaling=1.1 benchmark_Eint=-1.027 benchmark_unit=kcal/mol group=XH-F
  O   -0.756718617   1.277987001  -1.412937910
  H   -0.588776896   1.071719275  -0.491380046
  C   -0.218561446   0.240510301  -2.219749535
  H   -0.408660002   0.514260066  -3.254710636
  H    0.861262281   0.132367295  -2.084927087
  H   -0.698617297  -0.722721751  -2.025192141
  C    0.847352516  -1.845709605   1.110724653
  F    0.523632058  -0.563838256   1.271789584
  F   -0.183918766  -2.493888641   0.591642778
  F    1.157485863  -2.368116192   2.285514779
  F    1.885466832  -1.934301099   0.294163453
