12
charge=0 charge_a=0 charge_b=0 selection_a=1-8 selection_b=9-12 scaling=0.9 benchmark_Eint=-5.142 benchmark_unit=kcal/mol group=XH-F
  H   -0.748937005   2.058560464  -1.823041585
  H   -0.411600206  -1.614430501  -2.315267051
  H   -2.304666348  -0.112372608   0.256988524
  P   -1.629360907   0.091255759  -1.789269326
  O   -2.210091316   0.225505071  -3.117115713
  O   -0.559424319   1.215909968  -1.398243082
  O   -2.680411486   0.065938823  -0.616107398
  O   -0.772466205  -1.232310667  -1.509166881
  P    0.378244583  -1.354564108   1.084443237
  F   -1.073944680  -0.698897168   1.373667001
  F    1.063211872  -0.979195187   2.476047375
  H    0.880928050  -0.229383592   0.370681671
