12
charge=0 charge_a=0 charge_b=0 selection_a=1-8 selection_b=9-12 scaling=2.0 benchmark_Eint=-0.852 benchmark_unit=kcal/mol group=XH-F
  H   -0.748937005   2.058560464  -1.823041585
  H   -0.411600206  -1.614430501  -2.315267051
  H   -2.304666348  -0.112372608   0.256988524
  P   -1.629360907   0.091255759  -1.789269326
  O   -2.210091316   0.225505071  -3.117115713
  O   -0.559424319   1.215909968  -1.398243082
  O   -2.680411486   0.065938823  -0.616107398
  O   -0.772466205  -1.232310667  -1.509166881
  P    1.882459955  -2.071427460   2.449272486
  F    0.430270692  -1.415760520   2.738496250
  F    2.567427244  -1.696058539   3.840876624
  H    2.385143422  -0.946246944   1.735510920
