8
charge=0 charge_a=0 charge_b=0 selection_a=1-3 selection_b=4-8 scaling=0.95 benchmark_Eint=-4.033 benchmark_unit=kcal/mol group=XH-F
  O    0.080066228  -1.376853631  -1.389495123
  H    0.215590518  -1.145739031  -0.463594959
  H    0.576612278  -2.185512108  -1.529153525
  H   -1.276564338   1.554312546   0.720567252
  H    0.414808860   2.100133578   0.519591642
  H   -0.369708672   1.126620662  -0.761889553
  C   -0.300945588   1.309376529   0.307455513
  F    0.151976076   0.134560798   0.925083874
