8
charge=0 charge_a=0 charge_b=0 selection_a=1-3 selection_b=4-8 scaling=0.8 benchmark_Eint=-0.969 benchmark_unit=kcal/mol group=XH-F
  O    0.080066228  -1.376853631  -1.389495123
  H    0.215590518  -1.145739031  -0.463594959
  H    0.576612278  -2.185512108  -1.529153525
  H   -1.266519953   1.352159942   0.501302173
  H    0.424853245   1.897980974   0.300326563
  H   -0.359664286   0.924468058  -0.981154632
  C   -0.290901202   1.107223925   0.088190434
  F    0.162020462  -0.067591806   0.705818795
