6
charge=0 charge_a=0 charge_b=0 selection_a=1-4 selection_b=5-6 scaling=1.5 benchmark_Eint=-0.101 benchmark_unit=kcal/mol group=XH-F
  P    0.674172341  -1.071456855   2.057048137
  F   -0.497277445  -0.003655152   2.045633179
  F    1.874783963  -0.141722648   1.602162935
  H    0.403263779  -1.592580536   0.768694448
  F   -0.023158585   1.520124813  -2.306794245
  F    0.177684854   2.763524143  -1.702990288
