6
charge=0 charge_a=0 charge_b=0 selection_a=1-4 selection_b=5-6 scaling=1.05 benchmark_Eint=-0.609 benchmark_unit=kcal/mol group=XH-F
  P    0.674172341  -1.071456855   2.057048137
  F   -0.497277445  -0.003655152   2.045633179
  F    1.874783963  -0.141722648   1.602162935
  H    0.403263779  -1.592580536   0.768694448
  F    0.144096022   0.774626885  -1.216638836
  F    0.344939461   2.018026215  -0.612834879
