8
charge=0 charge_a=0 charge_b=0 selection_a=1-3 selection_b=4-8 scaling=0.9 benchmark_Eint=-1.963 benchmark_unit=kcal/mol group=XH-F
  H    0.772317992   0.289446267   0.424270171
  H    2.154945825   0.503297034  -0.922890803
  S    1.244355420   1.292062670  -0.333928762
  H   -1.221744775  -0.289044248  -0.982554791
  H   -1.644226495  -2.012305220  -0.755870843
  H   -2.551698010  -0.747363945   0.121806990
  C   -1.582149919  -1.036361863  -0.278694455
  F   -0.674729653  -1.119725249   0.779518463
