8
charge=0 charge_a=0 charge_b=0 selection_a=1-3 selection_b=4-8 scaling=0.8 benchmark_Eint=-0.072 benchmark_unit=kcal/mol group=XH-F
  H    0.772317992   0.289446267   0.424270171
  H    2.154945825   0.503297034  -0.922890803
  S    1.244355420   1.292062670  -0.333928762
  H   -1.060961704  -0.132469635  -1.022026824
  H   -1.483443424  -1.855730607  -0.795342876
  H   -2.390914939  -0.590789332   0.082334957
  C   -1.421366848  -0.879787250  -0.318166488
  F   -0.513946582  -0.963150636   0.740046430
