8
charge=0 charge_a=0 charge_b=0 selection_a=1-3 selection_b=4-8 scaling=1.1 benchmark_Eint=-2.168 benchmark_unit=kcal/mol group=XH-F
  H    0.772317992   0.289446267   0.424270171
  H    2.154945825   0.503297034  -0.922890803
  S    1.244355420   1.292062670  -0.333928762
  H   -1.543310919  -0.602193474  -0.903610727
  H   -1.965792639  -2.325454446  -0.676926779
  H   -2.873264154  -1.060513171   0.200751054
  C   -1.903716063  -1.349511089  -0.199750391
  F   -0.996295797  -1.432874475   0.858462527
