8
charge=0 charge_a=0 charge_b=0 selection_a=1-3 selection_b=4-8 scaling=2.0 benchmark_Eint=-0.338 benchmark_unit=kcal/mol group=XH-F
  H    0.772317992   0.289446267   0.424270171
  H    2.154945825   0.503297034  -0.922890803
  S    1.244355420   1.292062670  -0.333928762
  H   -2.990358564  -2.011364990  -0.548362435
  H   -3.412840284  -3.734625962  -0.321678487
  H   -4.320311799  -2.469684687   0.555999346
  C   -3.350763708  -2.758682605   0.155497901
  F   -2.443343442  -2.842045991   1.213710819
