8
charge=0 charge_a=0 charge_b=0 selection_a=1-3 selection_b=4-8 scaling=1.25 benchmark_Eint=-1.643 benchmark_unit=kcal/mol group=XH-F
  H    0.772317992   0.289446267   0.424270171
  H    2.154945825   0.503297034  -0.922890803
  S    1.244355420   1.292062670  -0.333928762
  H   -1.784485526  -0.837055393  -0.844402678
  H   -2.206967246  -2.560316365  -0.617718730
  H   -3.114438761  -1.295375090   0.259959103
  C   -2.144890670  -1.584373008  -0.140542342
  F   -1.237470404  -1.667736394   0.917670576
