6
charge=0 charge_a=0 charge_b=0 selection_a=1-2 selection_b=3-6 scaling=0.9 benchmark_Eint=-3.652 benchmark_unit=kcal/mol group=XH-F
  H   -0.125894687   1.650952610   0.000000000
  F    0.218483751   2.513324458   0.000000000
  P    0.345728080  -1.241228907   0.000000000
  H   -0.356135551  -1.934632156  -1.022721997
  H   -0.356135551  -1.934632156   1.022721997
  F   -0.595032943   0.099643465   0.000000000
