6
charge=0 charge_a=0 charge_b=0 selection_a=1-2 selection_b=3-6 scaling=0.8 benchmark_Eint=-0.616 benchmark_unit=kcal/mol group=XH-F
  H   -0.125894687   1.650952610   0.000000000
  F    0.218483751   2.513324458   0.000000000
  P    0.397854553  -1.068861224   0.000000000
  H   -0.304009078  -1.762264473  -1.022721997
  H   -0.304009078  -1.762264473   1.022721997
  F   -0.542906470   0.272011148   0.000000000
