6
charge=0 charge_a=0 charge_b=0 selection_a=1-2 selection_b=3-6 scaling=1.5 benchmark_Eint=-2.076 benchmark_unit=kcal/mol group=XH-F
  H   -0.125894687   1.650952610   0.000000000
  F    0.218483751   2.513324458   0.000000000
  P    0.032969242  -2.275435004   0.000000000
  H   -0.668894388  -2.968838253  -1.022721997
  H   -0.668894388  -2.968838253   1.022721997
  F   -0.907791780  -0.934562632   0.000000000
