6
charge=0 charge_a=0 charge_b=0 selection_a=1-2 selection_b=3-6 scaling=0.85 benchmark_Eint=-2.563 benchmark_unit=kcal/mol group=XH-F
  H   -0.125894687   1.650952610   0.000000000
  F    0.218483751   2.513324458   0.000000000
  P    0.371791316  -1.155045066   0.000000000
  H   -0.330072315  -1.848448315  -1.022721997
  H   -0.330072315  -1.848448315   1.022721997
  F   -0.568969707   0.185827306   0.000000000
