4
charge=0 charge_a=0 charge_b=0 selection_a=1-2 selection_b=3-4 scaling=1.0 benchmark_Eint=-4.624 benchmark_unit=kcal/mol group=XH-F
  H   -0.082052577  -0.045767382  -0.478725397
  F    0.112777497  -0.025380444  -1.387103121
  H    0.654775712   0.274127894   1.710082125
  F   -0.143159246   0.013266403   1.321782255
