4
charge=0 charge_a=0 charge_b=0 selection_a=1-2 selection_b=3-4 scaling=0.9 benchmark_Eint=-3.909 benchmark_unit=kcal/mol group=XH-F
  H   -0.082052577  -0.045767382  -0.478725397
  F    0.112777497  -0.025380444  -1.387103121
  H    0.660886379   0.268224516   1.530031360
  F   -0.137048579   0.007363024   1.141731490
