7
charge=0 charge_a=0 charge_b=0 selection_a=1-2 selection_b=3-7 scaling=0.9 benchmark_Eint=-5.374 benchmark_unit=kcal/mol group=XH-F
  H    0.246633062   1.009009125   0.000000000
  F   -0.152661221   1.851828982   0.000000000
  H   -0.542957991  -1.948958467   0.895479757
  H   -1.449663664  -0.691092001   0.000000000
  H   -0.542957991  -1.948958467  -0.895479757
  C   -0.574063790  -1.334700595   0.000000000
  F    0.571951755  -0.515532203   0.000000000
