6
charge=0 charge_a=0 charge_b=0 selection_a=1-2 selection_b=3-6 scaling=0.95 benchmark_Eint=-3.362 benchmark_unit=kcal/mol group=XH-F
  H    0.877639885   0.253766380  -0.699482539
  F    0.421979799   0.851309102  -1.242840685
  P    0.395500313  -1.161350317   1.886464328
  F    0.943388170   0.042336171   2.767717014
  F    1.278019161  -0.907592174   0.554241496
  H   -0.754703303  -0.471954324   1.396789316
