6
charge=0 charge_a=0 charge_b=0 selection_a=1-2 selection_b=3-6 scaling=2.0 benchmark_Eint=-0.578 benchmark_unit=kcal/mol group=XH-F
  H    0.877639885   0.253766380  -0.699482539
  F    0.421979799   0.851309102  -1.242840685
  P    0.838024775  -2.444957139   3.272159314
  F    1.385912632  -1.241270651   4.153411999
  F    1.720543623  -2.191198996   1.939936481
  H   -0.312178841  -1.755561146   2.782484301
