7
charge=0 charge_a=0 charge_b=0 selection_a=1-2 selection_b=3-7 scaling=0.9 benchmark_Eint=-0.876 benchmark_unit=kcal/mol group=XH-F
  H    0.146501661   0.397704458  -2.286260823
  F    0.621680349   0.612576639  -3.048278943
  C   -0.042957231  -0.096627023   0.517223017
  F   -0.638841583   0.026441504  -0.679036010
  F   -0.537173840  -1.154459701   1.132863019
  F   -0.279018321   0.991169204   1.226937512
  F    1.256872834  -0.244730816   0.334981762
