4
charge=0 charge_a=0 charge_b=0 selection_a=1-2 selection_b=3-4 scaling=0.8 benchmark_Eint=-0.081 benchmark_unit=kcal/mol group=XH-F
  H   -0.176353781  -0.044371204   0.055481540
 Cl    0.093460166  -0.038977817  -1.202312446
  H    0.615740627   0.275154328   2.056363253
  F   -0.191377957   0.037854039   1.674694895
