4
charge=0 charge_a=0 charge_b=0 selection_a=1-2 selection_b=3-4 scaling=1.05 benchmark_Eint=-2.740 benchmark_unit=kcal/mol group=XH-F
  H   -0.176353781  -0.044371204   0.055481540
 Cl    0.093460166  -0.038977817  -1.202312446
  H    0.611045572   0.300849717   2.562367427
  F   -0.196073012   0.063549428   2.180699069
