4
charge=0 charge_a=0 charge_b=0 selection_a=1-2 selection_b=3-4 scaling=0.95 benchmark_Eint=-2.627 benchmark_unit=kcal/mol group=XH-F
  H   -0.176353781  -0.044371204   0.055481540
 Cl    0.093460166  -0.038977817  -1.202312446
  H    0.612923594   0.290571561   2.359965757
  F   -0.194194990   0.053271272   1.978297399
