7
charge=0 charge_a=0 charge_b=0 selection_a=1-2 selection_b=3-7 scaling=1.0 benchmark_Eint=-3.953 benchmark_unit=kcal/mol group=XH-F
  H    0.429587998  -0.486560541   0.000000000
 Cl   -0.066167684  -1.677249578   0.000000000
  H   -0.664206628   2.707447110   0.894772468
  H   -0.664206628   2.707447110  -0.894772468
  H   -1.396685597   1.342533647   0.000000000
  C   -0.609229116   2.092577180   0.000000000
  F    0.628370216   1.432785164   0.000000000
