7
charge=0 charge_a=0 charge_b=0 selection_a=1-2 selection_b=3-7 scaling=0.85 benchmark_Eint=-0.282 benchmark_unit=kcal/mol group=XH-F
  H    0.899741532   1.996983088   0.000000000
 Cl   -0.020205803   2.887946808   0.000000000
  C   -0.039990049  -0.805888016   0.000000000
  F    1.080535829  -0.083082681   0.000000000
  F   -0.744000760  -0.518726439  -1.082147125
  F   -0.744000760  -0.518726439   1.082147125
  F    0.274414877  -2.091854771   0.000000000
