4
charge=0 charge_a=0 charge_b=0 selection_a=1-2 selection_b=3-4 scaling=2.0 benchmark_Eint=-0.413 benchmark_unit=kcal/mol group=XH-F
  H   -0.262410292  -0.031032367   0.675994838
 Br    0.055754988  -0.019611785  -0.716815364
  H    0.589553826   0.378554633   5.235605944
  F   -0.233997410   0.167633091   4.874769870
