7
charge=0 charge_a=0 charge_b=0 selection_a=1-2 selection_b=3-7 scaling=1.05 benchmark_Eint=-3.380 benchmark_unit=kcal/mol group=XH-F
  H   -0.499627856   0.249626143   0.118499305
 Br    0.273074964  -0.060187914  -1.046367715
  H    0.214377750   0.614994312   3.654974033
  H   -0.606737547  -0.969918346   3.531936340
  H    0.687872078  -0.540885307   2.375019003
  C   -0.133678622  -0.162136245   2.978921560
  F   -1.089364852   0.399485711   2.122322373
