7
charge=0 charge_a=0 charge_b=0 selection_a=1-2 selection_b=3-7 scaling=1.5 benchmark_Eint=-1.538 benchmark_unit=kcal/mol group=XH-F
  H   -0.499627856   0.249626143   0.118499305
 Br    0.273074964  -0.060187914  -1.046367715
  H   -0.038366677   0.679219841   4.513755348
  H   -0.859481974  -0.905692817   4.390717655
  H    0.435127651  -0.476659778   3.233800318
  C   -0.386423049  -0.097910716   3.837702875
  F   -1.342109279   0.463711240   2.981103688
