7
charge=0 charge_a=0 charge_b=0 selection_a=1-2 selection_b=3-7 scaling=1.0 benchmark_Eint=-3.433 benchmark_unit=kcal/mol group=XH-F
  H   -0.499627856   0.249626143   0.118499305
 Br    0.273074964  -0.060187914  -1.046367715
  H    0.242460464   0.607858142   3.559553887
  H   -0.578654833  -0.977054516   3.436516194
  H    0.715954792  -0.548021477   2.279598857
  C   -0.105595908  -0.169272415   2.883501414
  F   -1.061282138   0.392349541   2.026902227
