7
charge=0 charge_a=0 charge_b=0 selection_a=1-2 selection_b=3-7 scaling=1.25 benchmark_Eint=-2.551 benchmark_unit=kcal/mol group=XH-F
  H   -0.499627856   0.249626143   0.118499305
 Br    0.273074964  -0.060187914  -1.046367715
  H    0.102046894   0.643538992   4.036654618
  H   -0.719068404  -0.941373666   3.913616924
  H    0.575541222  -0.512340628   2.756699588
  C   -0.246009478  -0.133591566   3.360602144
  F   -1.201695708   0.428030390   2.504002958
