7
charge=0 charge_a=0 charge_b=0 selection_a=1-2 selection_b=3-7 scaling=0.85 benchmark_Eint=-2.189 benchmark_unit=kcal/mol group=XH-F
  H   -0.499627856   0.249626143   0.118499305
 Br    0.273074964  -0.060187914  -1.046367715
  H    0.326708606   0.586449632   3.273293449
  H   -0.494406691  -0.998463026   3.150255756
  H    0.800202934  -0.569429987   1.993338419
  C   -0.021347766  -0.190680925   2.597240976
  F   -0.977033996   0.370941031   1.740641789
