4
charge=0 charge_a=0 charge_b=0 selection_a=1-2 selection_b=3-4 scaling=1.0 benchmark_Eint=-0.507 benchmark_unit=kcal/mol group=XH-F
  H    0.056611427  -0.063269451  -0.898869585
  I    0.180449043  -0.243966834  -2.497001253
  F   -0.273235416   0.238868521   1.615503869
  F    0.789154424  -0.564874900   2.034773646
