4
charge=0 charge_a=0 charge_b=0 selection_a=1-2 selection_b=3-4 scaling=0.95 benchmark_Eint=-0.469 benchmark_unit=kcal/mol group=XH-F
  H    0.056611427  -0.063269451  -0.898869585
  I    0.180449043  -0.243966834  -2.497001253
  F   -0.256743074   0.223761622   1.489785196
  F    0.805646766  -0.579981799   1.909054973
