4
charge=0 charge_a=0 charge_b=0 selection_a=1-2 selection_b=3-4 scaling=1.5 benchmark_Eint=-0.150 benchmark_unit=kcal/mol group=XH-F
  H    0.056611427  -0.063269451  -0.898869585
  I    0.180449043  -0.243966834  -2.497001253
  F   -0.438158838   0.389937507   2.872690596
  F    0.624231002  -0.413805914   3.291960373
