4
charge=0 charge_a=0 charge_b=0 selection_a=1-2 selection_b=3-4 scaling=0.8 benchmark_Eint=0.252 benchmark_unit=kcal/mol group=XH-F
  H   -0.201340452  -0.015288357  -0.867920736
  I    0.292571396  -0.069479531  -2.405652362
  H    0.824086446   0.194156707   1.152775018
  F   -0.067793997   0.102147331   0.933334314
