4
charge=0 charge_a=0 charge_b=0 selection_a=1-2 selection_b=3-4 scaling=1.1 benchmark_Eint=-1.574 benchmark_unit=kcal/mol group=XH-F
  H   -0.201340452  -0.015288357  -0.867920736
  I    0.292571396  -0.069479531  -2.405652362
  H    0.874166367   0.238195090   1.828245661
  F   -0.017714076   0.146185714   1.608804957
