4
charge=0 charge_a=0 charge_b=0 selection_a=1-2 selection_b=3-4 scaling=0.9 benchmark_Eint=-1.281 benchmark_unit=kcal/mol group=XH-F
  H   -0.201340452  -0.015288357  -0.867920736
  I    0.292571396  -0.069479531  -2.405652362
  H    0.840779753   0.208836168   1.377931899
  F   -0.051100690   0.116826792   1.158491195
