7
charge=0 charge_a=0 charge_b=0 selection_a=1-2 selection_b=3-7 scaling=2.0 benchmark_Eint=-0.407 benchmark_unit=kcal/mol group=XH-F
  H   -0.650095310   0.658648843   0.000000000
  I    0.014334529  -0.816331458   0.000000000
  H    1.352822248   4.573523920   0.000000000
  H    0.824774567   6.028556989  -0.894222833
  H    0.824774567   6.028556989   0.894222833
  C    0.677865750   5.427012791   0.000000000
  F   -0.636718856   4.952616779   0.000000000
