7
charge=0 charge_a=0 charge_b=0 selection_a=1-2 selection_b=3-7 scaling=0.95 benchmark_Eint=-2.535 benchmark_unit=kcal/mol group=XH-F
  H   -0.650095310   0.658648843   0.000000000
  I    0.014334529  -0.816331458   0.000000000
  H    1.345799610   2.319190754   0.000000000
  H    0.817751929   3.774223823  -0.894222833
  H    0.817751929   3.774223823   0.894222833
  C    0.670843112   3.172679625   0.000000000
  F   -0.643741494   2.698283613   0.000000000
