7
charge=0 charge_a=0 charge_b=0 selection_a=1-2 selection_b=3-7 scaling=0.9 benchmark_Eint=-2.222 benchmark_unit=kcal/mol group=XH-F
  H   -0.650095310   0.658648843   0.000000000
  I    0.014334529  -0.816331458   0.000000000
  H    1.345465198   2.211841555   0.000000000
  H    0.817417517   3.666874624  -0.894222833
  H    0.817417517   3.666874624   0.894222833
  C    0.670508700   3.065330426   0.000000000
  F   -0.644075906   2.590934414   0.000000000
