7
charge=0 charge_a=0 charge_b=0 selection_a=1-2 selection_b=3-7 scaling=1.1 benchmark_Eint=-2.464 benchmark_unit=kcal/mol group=XH-F
  H   -0.650095310   0.658648843   0.000000000
  I    0.014334529  -0.816331458   0.000000000
  H    1.346802844   2.641238349   0.000000000
  H    0.818755163   4.096271418  -0.894222833
  H    0.818755163   4.096271418   0.894222833
  C    0.671846346   3.494727220   0.000000000
  F   -0.642738260   3.020331208   0.000000000
