7
charge=0 charge_a=0 charge_b=0 selection_a=1-2 selection_b=3-7 scaling=1.05 benchmark_Eint=-2.589 benchmark_unit=kcal/mol group=XH-F
  H   -0.650095310   0.658648843   0.000000000
  I    0.014334529  -0.816331458   0.000000000
  H    1.346468432   2.533889150   0.000000000
  H    0.818420751   3.988922219  -0.894222833
  H    0.818420751   3.988922219   0.894222833
  C    0.671511934   3.387378021   0.000000000
  F   -0.643072672   2.912982009   0.000000000
