9
charge=0 charge_a=0 charge_b=0 selection_a=1-4 selection_b=5-9 scaling=1.5 benchmark_Eint=-0.723 benchmark_unit=kcal/mol group=XH-Cl
  C    0.479911713  -2.111934053   0.000000000
  H    1.047301428  -1.212360231   0.000000000
  C   -0.175906264  -3.112159341   0.000000000
  H   -0.750117368  -4.004711377   0.000000000
  H   -2.024480739   2.804700156  -0.891927815
  H   -1.621939639   1.311929315   0.000000000
  H   -2.024480739   2.804700156   0.891927815
  C   -1.565537260   2.394522440   0.000000000
 Cl    0.169453503   2.864839986   0.000000000
