9
charge=0 charge_a=0 charge_b=0 selection_a=1-4 selection_b=5-9 scaling=1.1 benchmark_Eint=-2.100 benchmark_unit=kcal/mol group=XH-Cl
  C    0.479911713  -2.111934053   0.000000000
  H    1.047301428  -1.212360231   0.000000000
  C   -0.175906264  -3.112159341   0.000000000
  H   -0.750117368  -4.004711377   0.000000000
  H   -1.790387959   1.717446765  -0.891927815
  H   -1.387846859   0.224675924   0.000000000
  H   -1.790387959   1.717446765   0.891927815
  C   -1.331444480   1.307269049   0.000000000
 Cl    0.403546283   1.777586595   0.000000000
