9
charge=0 charge_a=0 charge_b=0 selection_a=1-4 selection_b=5-9 scaling=2.0 benchmark_Eint=-0.217 benchmark_unit=kcal/mol group=XH-Cl
  C    0.479911713  -2.111934053   0.000000000
  H    1.047301428  -1.212360231   0.000000000
  C   -0.175906264  -3.112159341   0.000000000
  H   -0.750117368  -4.004711377   0.000000000
  H   -2.317096714   4.163766895  -0.891927815
  H   -1.914555614   2.670996054   0.000000000
  H   -2.317096714   4.163766895   0.891927815
  C   -1.858153235   3.753589179   0.000000000
 Cl   -0.123162472   4.223906725   0.000000000
