9
charge=0 charge_a=0 charge_b=0 selection_a=1-4 selection_b=5-9 scaling=0.85 benchmark_Eint=-0.732 benchmark_unit=kcal/mol group=XH-Cl
  C    0.479911713  -2.111934053   0.000000000
  H    1.047301428  -1.212360231   0.000000000
  C   -0.175906264  -3.112159341   0.000000000
  H   -0.750117368  -4.004711377   0.000000000
  H   -1.644079972   1.037913395  -0.891927815
  H   -1.241538872  -0.454857446   0.000000000
  H   -1.644079972   1.037913395   0.891927815
  C   -1.185136492   0.627735679   0.000000000
 Cl    0.549854270   1.098053225   0.000000000
