9
charge=0 charge_a=0 charge_b=0 selection_a=1-4 selection_b=5-9 scaling=1.05 benchmark_Eint=-2.270 benchmark_unit=kcal/mol group=XH-Cl
  C    0.479911713  -2.111934053   0.000000000
  H    1.047301428  -1.212360231   0.000000000
  C   -0.175906264  -3.112159341   0.000000000
  H   -0.750117368  -4.004711377   0.000000000
  H   -1.761126362   1.581540091  -0.891927815
  H   -1.358585262   0.088769250   0.000000000
  H   -1.761126362   1.581540091   0.891927815
  C   -1.302182882   1.171362375   0.000000000
 Cl    0.432807880   1.641679921   0.000000000
