8
charge=0 charge_a=0 charge_b=0 selection_a=1-4 selection_b=5-8 scaling=1.5 benchmark_Eint=-0.530 benchmark_unit=kcal/mol group=XH-Cl
  C    3.296630503   0.168006106   1.066843474
  H    2.335366386   0.092522766   1.510623090
  C    4.377290892   0.253169626   0.562675947
  H    5.336195375   0.328775420   0.114573759
  P   -2.240517768  -0.043281966  -0.091818796
 Cl   -1.941379252  -0.078677374   1.964476490
 Cl   -1.115532064   1.607859138  -0.606573070
 Cl   -0.982133898  -1.569434000  -0.679834288
