8
charge=0 charge_a=0 charge_b=0 selection_a=1-4 selection_b=5-8 scaling=0.85 benchmark_Eint=-0.331 benchmark_unit=kcal/mol group=XH-Cl
  C    3.296630503   0.168006106   1.066843474
  H    2.335366386   0.092522766   1.510623090
  C    4.377290892   0.253169626   0.562675947
  H    5.336195375   0.328775420   0.114573759
  P   -0.387261324   0.030904761  -0.288488603
 Cl   -0.088122809  -0.004490647   1.767806683
 Cl    0.737724380   1.682045866  -0.803242877
 Cl    0.871122545  -1.495247272  -0.876504095
