8
charge=0 charge_a=0 charge_b=0 selection_a=1-4 selection_b=5-8 scaling=0.95 benchmark_Eint=-1.303 benchmark_unit=kcal/mol group=XH-Cl
  C    3.296630503   0.168006106   1.066843474
  H    2.335366386   0.092522766   1.510623090
  C    4.377290892   0.253169626   0.562675947
  H    5.336195375   0.328775420   0.114573759
  P   -0.672377700   0.019491418  -0.258231710
 Cl   -0.373239185  -0.015903990   1.798063576
 Cl    0.452608004   1.670632523  -0.772985984
 Cl    0.586006169  -1.506660615  -0.846247202
