8
charge=0 charge_a=0 charge_b=0 selection_a=1-4 selection_b=5-8 scaling=2.0 benchmark_Eint=-0.196 benchmark_unit=kcal/mol group=XH-Cl
  C    2.781418243  -0.608550324  -0.534769490
  H    2.005196997  -1.321134149  -0.666124262
  C    3.650641240   0.199478900  -0.390357533
  H    4.421813727   0.916509176  -0.259273507
 Cl   -3.433392143  -1.551724155  -2.523830830
  S   -3.405262549   0.467180440  -1.945424504
  S   -4.088903638   0.601487688  -0.129413167
 Cl   -2.518252447   0.285260150   1.208787030
