8
charge=0 charge_a=0 charge_b=0 selection_a=1-4 selection_b=5-8 scaling=1.1 benchmark_Eint=-1.594 benchmark_unit=kcal/mol group=XH-Cl
  C    2.781418243  -0.608550324  -0.534769490
  H    2.005196997  -1.321134149  -0.666124262
  C    3.650641240   0.199478900  -0.390357533
  H    4.421813727   0.916509176  -0.259273507
 Cl   -0.986027030  -1.447958652  -1.687862874
  S   -0.957897436   0.570945943  -1.109456548
  S   -1.641538525   0.705253191   0.706554789
 Cl   -0.070887334   0.389025653   2.044754986
