8
charge=0 charge_a=0 charge_b=0 selection_a=1-4 selection_b=5-8 scaling=0.8 benchmark_Eint=1.023 benchmark_unit=kcal/mol group=XH-Cl
  C    2.781418243  -0.608550324  -0.534769490
  H    2.005196997  -1.321134149  -0.666124262
  C    3.650641240   0.199478900  -0.390357533
  H    4.421813727   0.916509176  -0.259273507
 Cl   -0.170238659  -1.413370151  -1.409206889
  S   -0.142109065   0.605534444  -0.830800563
  S   -0.825750154   0.739841692   0.985210774
 Cl    0.744901037   0.423614154   2.323410971
