8
charge=0 charge_a=0 charge_b=0 selection_a=1-4 selection_b=5-8 scaling=1.5 benchmark_Eint=-0.632 benchmark_unit=kcal/mol group=XH-Cl
  C    2.781418243  -0.608550324  -0.534769490
  H    2.005196997  -1.321134149  -0.666124262
  C    3.650641240   0.199478900  -0.390357533
  H    4.421813727   0.916509176  -0.259273507
 Cl   -2.073744858  -1.494076654  -2.059404188
  S   -2.045615264   0.524827942  -1.480997862
  S   -2.729256353   0.659135190   0.335013475
 Cl   -1.158605162   0.342907652   1.673213672
