10
charge=0 charge_a=0 charge_b=0 selection_a=1-8 selection_b=9-10 scaling=0.85 benchmark_Eint=-0.867 benchmark_unit=kcal/mol group=XH-Cl
  C   -0.095408807  -1.415624189   0.000000000
  O   -1.140630393  -0.819032528   0.000000000
  O    1.102279988  -0.790028485   0.000000000
  H    0.930776231   0.165405943   0.000000000
  C    0.059501228  -2.909667728   0.000000000
  H   -0.918122833  -3.378249266   0.000000000
  H    0.624416013  -3.221906936  -0.877295155
  H    0.624416013  -3.221906936   0.877295155
  H    1.025455591   2.967756843   0.000000000
 Cl    0.112513627   2.067678413   0.000000000
