10
charge=0 charge_a=0 charge_b=0 selection_a=1-8 selection_b=9-10 scaling=0.8 benchmark_Eint=0.993 benchmark_unit=kcal/mol group=XH-Cl
  C   -0.095408807  -1.415624189   0.000000000
  O   -1.140630393  -0.819032528   0.000000000
  O    1.102279988  -0.790028485   0.000000000
  H    0.930776231   0.165405943   0.000000000
  C    0.059501228  -2.909667728   0.000000000
  H   -0.918122833  -3.378249266   0.000000000
  H    0.624416013  -3.221906936  -0.877295155
  H    0.624416013  -3.221906936   0.877295155
  H    1.073588685   2.855858463   0.000000000
 Cl    0.160646721   1.955780033   0.000000000
