13
charge=0 charge_a=0 charge_b=0 selection_a=1-8 selection_b=9-13 scaling=1.0 benchmark_Eint=-3.628 benchmark_unit=kcal/mol group=XH-Cl
  C   -0.093827159  -1.980046657   0.000000000
  O   -1.294425610  -2.042471450   0.000000000
  O    0.577258309  -0.806696049   0.000000000
  H   -0.075219274  -0.084473858   0.000000000
  C    0.844281249  -3.154135175   0.000000000
  H    0.274654120  -4.076554420   0.000000000
  H    1.488182784  -3.112622183  -0.877509170
  H    1.488182784  -3.112622183   0.877509170
  H    1.403916073   3.206134953  -0.892429753
  H    1.403916073   3.206134953   0.892429753
  H    1.750239784   1.699424879   0.000000000
  C    1.193170398   2.629074631   0.000000000
 Cl   -0.561838686   2.228436103   0.000000000
