13
charge=0 charge_a=0 charge_b=0 selection_a=1-8 selection_b=9-13 scaling=1.25 benchmark_Eint=-2.314 benchmark_unit=kcal/mol group=XH-Cl
  C   -0.093827159  -1.980046657   0.000000000
  O   -1.294425610  -2.042471450   0.000000000
  O    0.577258309  -0.806696049   0.000000000
  H   -0.075219274  -0.084473858   0.000000000
  C    0.844281249  -3.154135175   0.000000000
  H    0.274654120  -4.076554420   0.000000000
  H    1.488182784  -3.112622183  -0.877509170
  H    1.488182784  -3.112622183   0.877509170
  H    1.282261220   3.784362443  -0.892429753
  H    1.282261220   3.784362443   0.892429753
  H    1.628584931   2.277652369   0.000000000
  C    1.071515545   3.207302121   0.000000000
 Cl   -0.683493539   2.806663593   0.000000000
