12
charge=0 charge_a=0 charge_b=0 selection_a=1-8 selection_b=9-12 scaling=1.25 benchmark_Eint=-1.807 benchmark_unit=kcal/mol group=XH-Cl
  C    3.345318533  -0.477864024   0.226244029
  O    3.075291494  -0.477504808   1.398749772
  O    2.423754936  -0.250489768  -0.736249410
  H    1.572310567  -0.102646735  -0.297643536
  C    4.706409732  -0.722924315  -0.359546503
  H    5.421707255  -0.892699648   0.437197577
  H    4.671973726  -1.586976573  -1.021798735
  H    5.009898492   0.133580003  -0.959898544
  P   -2.425478106   0.757615470   0.656938312
 Cl   -0.797585700   0.188331205   1.805236842
 Cl   -1.459749804   1.271003592  -1.101780330
 Cl   -3.195007172  -1.088633203   0.144718640
