12
charge=0 charge_a=0 charge_b=0 selection_a=1-8 selection_b=9-12 scaling=0.95 benchmark_Eint=-2.474 benchmark_unit=kcal/mol group=XH-Cl
  C    3.345318533  -0.477864024   0.226244029
  O    3.075291494  -0.477504808   1.398749772
  O    2.423754936  -0.250489768  -0.736249410
  H    1.572310567  -0.102646735  -0.297643536
  C    4.706409732  -0.722924315  -0.359546503
  H    5.421707255  -0.892699648   0.437197577
  H    4.671973726  -1.586976573  -1.021798735
  H    5.009898492   0.133580003  -0.959898544
  P   -1.856703002   0.687780764   0.152247021
 Cl   -0.228810596   0.118496499   1.300545551
 Cl   -0.890974699   1.201168886  -1.606471621
 Cl   -2.626232067  -1.158467909  -0.359972651
