12
charge=0 charge_a=0 charge_b=0 selection_a=1-8 selection_b=9-12 scaling=1.1 benchmark_Eint=-2.814 benchmark_unit=kcal/mol group=XH-Cl
  C    3.139683787  -1.224758528  -0.441062220
  O    2.525702182  -2.234296335  -0.673575767
  O    2.543458640  -0.021049912  -0.305566673
  H    1.589719274  -0.152700560  -0.427772003
  C    4.628300085  -1.129085141  -0.266401205
  H    5.073566587  -2.110964144  -0.380050916
  H    5.042204445  -0.442372626  -1.003529445
  H    4.858442311  -0.724787500   0.718377119
 Cl   -0.758432260  -1.390968008  -0.844287595
  S   -2.368921252  -0.051864216  -0.748681787
  S   -2.436277915   0.688808274   1.052887260
 Cl   -1.127174655   2.315859563   1.143321317
