11
charge=0 charge_a=0 charge_b=0 selection_a=1-6 selection_b=7-11 scaling=1.5 benchmark_Eint=-1.350 benchmark_unit=kcal/mol group=XH-Cl
  O   -0.949260013   1.282935735  -1.091134306
  H   -1.062529435   0.388595546  -0.754337570
  C   -0.000303359   1.243420730  -2.146909306
  H    0.157289889   2.268622595  -2.473901365
  H    0.958219092   0.830007406  -1.819987537
  H   -0.359922613   0.659326706  -2.998214356
  H    0.997136660  -0.578409430   3.361178580
  H    2.438343020  -0.679036812   2.314595420
  H    1.011039270   0.261377742   1.782453930
  C    1.357843178  -0.601203834   2.339721890
 Cl    0.678894708  -2.069287968   1.546158162
