11
charge=0 charge_a=0 charge_b=0 selection_a=1-6 selection_b=7-11 scaling=0.85 benchmark_Eint=-2.004 benchmark_unit=kcal/mol group=XH-Cl
  O   -0.949260013   1.282935735  -1.091134306
  H   -1.062529435   0.388595546  -0.754337570
  C   -0.000303359   1.243420730  -2.146909306
  H    0.157289889   2.268622595  -2.473901365
  H    0.958219092   0.830007406  -1.819987537
  H   -0.359922613   0.659326706  -2.998214356
  H    0.242519532   0.486673426   2.364297096
  H    1.683725891   0.386046043   1.317713937
  H    0.256422141   1.326460598   0.785572447
  C    0.603226050   0.463879021   1.342840407
 Cl   -0.075722420  -1.004205112   0.549276678
