10
charge=0 charge_a=0 charge_b=0 selection_a=1-6 selection_b=7-10 scaling=0.9 benchmark_Eint=-2.183 benchmark_unit=kcal/mol group=XH-Cl
  O   -1.656641508   1.873570781  -1.792895933
  H   -1.206915583   1.844990107  -0.945419952
  C   -1.726449657   0.553383824  -2.310382491
  H   -2.265366327   0.611005944  -3.253136248
  H   -0.734695681   0.135270441  -2.501405712
  H   -2.266988365  -0.121412047  -1.641332007
  P    0.807471880  -0.293600697   0.816758502
 Cl   -1.035400697   0.585388968   1.186757686
 Cl    0.236050497  -1.893795291  -0.355664362
 Cl    1.546870254   0.994233856  -0.621790814
