10
charge=0 charge_a=0 charge_b=0 selection_a=1-6 selection_b=7-10 scaling=0.85 benchmark_Eint=-1.370 benchmark_unit=kcal/mol group=XH-Cl
  O   -1.656641508   1.873570781  -1.792895933
  H   -1.206915583   1.844990107  -0.945419952
  C   -1.726449657   0.553383824  -2.310382491
  H   -2.265366327   0.611005944  -3.253136248
  H   -0.734695681   0.135270441  -2.501405712
  H   -2.266988365  -0.121412047  -1.641332007
  P    0.797943276  -0.223622856   0.698304189
 Cl   -1.044929301   0.655366809   1.068303373
 Cl    0.226521893  -1.823817450  -0.474118676
 Cl    1.537341650   1.064211697  -0.740245128
