10
charge=0 charge_a=0 charge_b=0 selection_a=1-6 selection_b=7-10 scaling=1.1 benchmark_Eint=-2.463 benchmark_unit=kcal/mol group=XH-Cl
  O   -1.656641508   1.873570781  -1.792895933
  H   -1.206915583   1.844990107  -0.945419952
  C   -1.726449657   0.553383824  -2.310382491
  H   -2.265366327   0.611005944  -3.253136248
  H   -0.734695681   0.135270441  -2.501405712
  H   -2.266988365  -0.121412047  -1.641332007
  P    0.845586300  -0.573512061   1.290575756
 Cl   -0.997286277   0.305477604   1.660574940
 Cl    0.274164917  -2.173706655   0.118152890
 Cl    1.584984674   0.714322492  -0.147973562
