10
charge=0 charge_a=0 charge_b=0 selection_a=1-6 selection_b=7-10 scaling=1.25 benchmark_Eint=-1.872 benchmark_unit=kcal/mol group=XH-Cl
  O   -1.656641508   1.873570781  -1.792895933
  H   -1.206915583   1.844990107  -0.945419952
  C   -1.726449657   0.553383824  -2.310382491
  H   -2.265366327   0.611005944  -3.253136248
  H   -0.734695681   0.135270441  -2.501405712
  H   -2.266988365  -0.121412047  -1.641332007
  P    0.874172114  -0.783445584   1.645938695
 Cl   -0.968700463   0.095544081   2.015937879
 Cl    0.302750731  -2.383640178   0.473515830
 Cl    1.613570488   0.504388969   0.207389378
