8
charge=0 charge_a=0 charge_b=0 selection_a=1-3 selection_b=4-8 scaling=1.1 benchmark_Eint=-3.399 benchmark_unit=kcal/mol group=XH-Cl
  O   -0.957936578  -1.600403085  -1.455027213
  H   -0.158325201  -1.361622737  -0.972333763
  H   -1.029392041  -2.553813037  -1.372805313
  H   -0.501406949   2.262096469   0.022104048
  H   -1.330203451   0.678457111   0.010390516
  H   -1.037783435   1.528023560   1.557846227
  C   -0.665486317   1.335270065   0.558724432
 Cl    0.924147676   0.499796115   0.714830393
