8
charge=0 charge_a=0 charge_b=0 selection_a=1-3 selection_b=4-8 scaling=1.25 benchmark_Eint=-2.465 benchmark_unit=kcal/mol group=XH-Cl
  O   -0.957936578  -1.600403085  -1.455027213
  H   -0.158325201  -1.361622737  -0.972333763
  H   -1.029392041  -2.553813037  -1.372805313
  H   -0.353797011   2.515926312   0.252171887
  H   -1.182593513   0.932286954   0.240458355
  H   -0.890173497   1.781853403   1.787914066
  C   -0.517876379   1.589099908   0.788792271
 Cl    1.071757614   0.753625958   0.944898232
