7
charge=0 charge_a=0 charge_b=0 selection_a=1-3 selection_b=4-7 scaling=1.05 benchmark_Eint=-1.896 benchmark_unit=kcal/mol group=XH-Cl
  O   -0.179065184  -3.016945644   0.000000000
  H    0.042387182  -2.470831377   0.758723103
  H    0.042387182  -2.470831377  -0.758723103
  P    0.152244352   1.253114554   0.000000000
 Cl   -1.780054040   0.544485004   0.000000000
 Cl    0.950121235   0.191450206   1.594095765
 Cl    0.950121235   0.191450206  -1.594095765
