7
charge=0 charge_a=0 charge_b=0 selection_a=1-3 selection_b=4-7 scaling=0.8 benchmark_Eint=1.179 benchmark_unit=kcal/mol group=XH-Cl
  O   -0.179065184  -3.016945644   0.000000000
  H    0.042387182  -2.470831377   0.758723103
  H    0.042387182  -2.470831377  -0.758723103
  P   -0.073680092   0.590503644   0.000000000
 Cl   -2.005978484  -0.118125906   0.000000000
 Cl    0.724196791  -0.471160704   1.594095765
 Cl    0.724196791  -0.471160704  -1.594095765
