7
charge=0 charge_a=0 charge_b=0 selection_a=1-3 selection_b=4-7 scaling=1.5 benchmark_Eint=-0.684 benchmark_unit=kcal/mol group=XH-Cl
  O   -0.179065184  -3.016945644   0.000000000
  H    0.042387182  -2.470831377   0.758723103
  H    0.042387182  -2.470831377  -0.758723103
  P    0.558908352   2.445814193   0.000000000
 Cl   -1.373390040   1.737184643   0.000000000
 Cl    1.356785235   1.384149845   1.594095765
 Cl    1.356785235   1.384149845  -1.594095765
