6
charge=0 charge_a=0 charge_b=0 selection_a=1-4 selection_b=5-6 scaling=0.85 benchmark_Eint=0.120 benchmark_unit=kcal/mol group=XH-Cl
  P   -0.321219550  -1.948835435   1.527411252
  F   -0.106737971  -0.422968017   1.923107644
  F    1.096628581  -2.242965255   0.885043584
  H   -0.979395488  -1.678676837   0.303582826
 Cl    0.038406595   0.988908015  -0.160176810
 Cl   -0.035303289   1.869609000  -1.932946984
