6
charge=0 charge_a=0 charge_b=0 selection_a=1-4 selection_b=5-6 scaling=0.9 benchmark_Eint=-1.005 benchmark_unit=kcal/mol group=XH-Cl
  P   -0.321219550  -1.948835435   1.527411252
  F   -0.106737971  -0.422968017   1.923107644
  F    1.096628581  -2.242965255   0.885043584
  H   -0.979395488  -1.678676837   0.303582826
 Cl    0.034250739   1.102812478  -0.253456376
 Cl   -0.039459145   1.983513463  -2.026226550
