8
charge=0 charge_a=0 charge_b=0 selection_a=1-3 selection_b=4-8 scaling=0.9 benchmark_Eint=-1.854 benchmark_unit=kcal/mol group=XH-Cl
  H    1.134943156   0.464255462  -0.467961851
  H    2.134375891   1.451346819   0.870753575
  S    1.441289529   1.751931610  -0.237291113
  H   -1.750137941  -0.512409161   1.673533483
  H   -1.008594275   0.805627789   0.722508228
  H   -2.451417092  -0.044435139   0.101781564
  C   -1.538706008  -0.139127832   0.678332062
 Cl   -0.477654277  -1.331222496  -0.149937433
