4
charge=0 charge_a=0 charge_b=0 selection_a=1-2 selection_b=3-4 scaling=1.25 benchmark_Eint=-2.050 benchmark_unit=kcal/mol group=XH-Cl
  H   -0.166740982  -0.172124732  -1.140544944
  F   -0.197387145  -0.132497381  -2.067892576
  H    0.794830630   1.203700924   1.577510842
 Cl    0.155428403   0.097794080   1.694163365
