4
charge=0 charge_a=0 charge_b=0 selection_a=1-2 selection_b=3-4 scaling=1.05 benchmark_Eint=-2.948 benchmark_unit=kcal/mol group=XH-Cl
  H   -0.166740982  -0.172124732  -1.140544944
  F   -0.197387145  -0.132497381  -2.067892576
  H    0.743283528   1.160513914   1.123957512
 Cl    0.103881301   0.054607070   1.240610035
