7
charge=0 charge_a=0 charge_b=0 selection_a=1-2 selection_b=3-7 scaling=0.8 benchmark_Eint=0.643 benchmark_unit=kcal/mol group=XH-Cl
  H   -0.315728734  -1.389828455   0.000000000
  F    0.099208777  -2.225581814   0.000000000
  H    1.496368455   1.190100907   0.893333170
  H    1.736737494  -0.338532223   0.000000000
  H    1.496368455   1.190100907  -0.893333170
  C    1.250000924   0.629340562   0.000000000
 Cl   -0.532562437   0.351893002   0.000000000
