7
charge=0 charge_a=0 charge_b=0 selection_a=1-2 selection_b=3-7 scaling=1.5 benchmark_Eint=-1.881 benchmark_unit=kcal/mol group=XH-Cl
  H   -0.315728734  -1.389828455   0.000000000
  F    0.099208777  -2.225581814   0.000000000
  H    1.306638964   2.714107182   0.893333170
  H    1.547008004   1.185474052   0.000000000
  H    1.306638964   2.714107182  -0.893333170
  C    1.060271434   2.153346836   0.000000000
 Cl   -0.722291928   1.875899276   0.000000000
