7
charge=0 charge_a=0 charge_b=0 selection_a=1-2 selection_b=3-7 scaling=1.25 benchmark_Eint=-3.438 benchmark_unit=kcal/mol group=XH-Cl
  H   -0.315728734  -1.389828455   0.000000000
  F    0.099208777  -2.225581814   0.000000000
  H    1.374399497   2.169819226   0.893333170
  H    1.614768536   0.641186096   0.000000000
  H    1.374399497   2.169819226  -0.893333170
  C    1.128031966   1.609058881   0.000000000
 Cl   -0.654531395   1.331611321   0.000000000
