7
charge=0 charge_a=0 charge_b=0 selection_a=1-2 selection_b=3-7 scaling=1.0 benchmark_Eint=-4.930 benchmark_unit=kcal/mol group=XH-Cl
  H   -0.315728734  -1.389828455   0.000000000
  F    0.099208777  -2.225581814   0.000000000
  H    1.442160029   1.625531271   0.893333170
  H    1.682529068   0.096898141   0.000000000
  H    1.442160029   1.625531271  -0.893333170
  C    1.195792498   1.064770926   0.000000000
 Cl   -0.586770863   0.787323366   0.000000000
