7
charge=0 charge_a=0 charge_b=0 selection_a=1-2 selection_b=3-7 scaling=0.85 benchmark_Eint=-2.312 benchmark_unit=kcal/mol group=XH-Cl
  H   -0.315728734  -1.389828455   0.000000000
  F    0.099208777  -2.225581814   0.000000000
  H    1.482816348   1.298958498   0.893333170
  H    1.723185387  -0.229674632   0.000000000
  H    1.482816348   1.298958498  -0.893333170
  C    1.236448817   0.738198153   0.000000000
 Cl   -0.546114544   0.460750593   0.000000000
