6
charge=0 charge_a=0 charge_b=0 selection_a=1-2 selection_b=3-6 scaling=1.05 benchmark_Eint=-2.494 benchmark_unit=kcal/mol group=XH-Cl
  H    0.228834519   0.370628924   0.003365949
  F    0.368539278   0.917583230  -0.732497130
  P    0.824228071   0.303137849   3.442526309
 Cl   -0.067486132  -0.960612427   2.027270554
 Cl    2.622524508   0.675579410   2.516353744
 Cl   -0.187268563   2.052282374   3.057599489
