6
charge=0 charge_a=0 charge_b=0 selection_a=1-2 selection_b=3-6 scaling=1.0 benchmark_Eint=-2.502 benchmark_unit=kcal/mol group=XH-Cl
  H    0.228834519   0.370628924   0.003365949
  F    0.368539278   0.917583230  -0.732497130
  P    0.838338578   0.366530294   3.346149899
 Cl   -0.053375625  -0.897219982   1.930894144
 Cl    2.636635015   0.738971855   2.419977334
 Cl   -0.173158056   2.115674819   2.961223079
