6
charge=0 charge_a=0 charge_b=0 selection_a=1-2 selection_b=3-6 scaling=0.85 benchmark_Eint=-0.622 benchmark_unit=kcal/mol group=XH-Cl
  H    0.228834519   0.370628924   0.003365949
  F    0.368539278   0.917583230  -0.732497130
  P    0.880670100   0.556707630   3.057020670
 Cl   -0.011044103  -0.707042646   1.641764915
 Cl    2.678966537   0.929149191   2.130848105
 Cl   -0.130826534   2.305852155   2.672093850
