6
charge=0 charge_a=0 charge_b=0 selection_a=1-2 selection_b=3-6 scaling=1.25 benchmark_Eint=-2.243 benchmark_unit=kcal/mol group=XH-Cl
  H    0.037976592  -0.108553810  -2.459197615
  F    0.828250667  -0.039555693  -2.943394038
 Cl   -2.219326613  -0.119571878  -0.749994904
  S   -1.285423219   1.005772308   0.786580888
  S   -0.355804516  -0.220818750   1.972549098
 Cl    1.540360994  -0.581930024   1.206097103
