6
charge=0 charge_a=0 charge_b=0 selection_a=1-2 selection_b=3-6 scaling=1.0 benchmark_Eint=-3.145 benchmark_unit=kcal/mol group=XH-Cl
  H    0.037976592  -0.108553810  -2.459197615
  F    0.828250667  -0.039555693  -2.943394038
 Cl   -1.767865972  -0.117368264  -1.091835446
  S   -0.833962578   1.007975922   0.444740346
  S    0.095656125  -0.218615136   1.630708556
 Cl    1.991821635  -0.579726410   0.864256561
