6
charge=0 charge_a=0 charge_b=0 selection_a=1-2 selection_b=3-6 scaling=0.85 benchmark_Eint=-0.947 benchmark_unit=kcal/mol group=XH-Cl
  H    0.037976592  -0.108553810  -2.459197615
  F    0.828250667  -0.039555693  -2.943394038
 Cl   -1.496989587  -0.116046096  -1.296939771
  S   -0.563086193   1.009298090   0.239636021
  S    0.366532510  -0.217292968   1.425604231
 Cl    2.262698020  -0.578404242   0.659152236
