6
charge=0 charge_a=0 charge_b=0 selection_a=1-2 selection_b=3-6 scaling=1.1 benchmark_Eint=-2.969 benchmark_unit=kcal/mol group=XH-Cl
  H    0.037976592  -0.108553810  -2.459197615
  F    0.828250667  -0.039555693  -2.943394038
 Cl   -1.948450228  -0.118249709  -0.955099229
  S   -1.014546834   1.007094477   0.581476563
  S   -0.084928131  -0.219496581   1.767444773
 Cl    1.811237379  -0.580607855   1.000992778
