4
charge=0 charge_a=0 charge_b=0 selection_a=1-2 selection_b=3-4 scaling=1.05 benchmark_Eint=-1.470 benchmark_unit=kcal/mol group=XH-Cl
  H   -0.294645010   0.304121680  -1.386697288
 Cl   -0.000897415  -0.055640208  -2.583890276
 Cl   -0.661592138   0.777578634   1.205282681
 Cl    0.636034067  -0.685612272   1.665428347
