4
charge=0 charge_a=0 charge_b=0 selection_a=1-2 selection_b=3-4 scaling=0.8 benchmark_Eint=1.405 benchmark_unit=kcal/mol group=XH-Cl
  H   -0.294645010   0.304121680  -1.386697288
 Cl   -0.000897415  -0.055640208  -2.583890276
 Cl   -0.574223774   0.664850788   0.588144593
 Cl    0.723402431  -0.798340118   1.048290259
