4
charge=0 charge_a=0 charge_b=0 selection_a=1-2 selection_b=3-4 scaling=1.25 benchmark_Eint=-1.354 benchmark_unit=kcal/mol group=XH-Cl
  H   -0.110342394  -0.192657999  -0.611221571
 Cl   -0.167429507  -0.066833724  -1.890314160
  H    0.609790698   1.307729370   2.340083870
 Cl    0.221268764   0.093597824   2.475655879
