4
charge=0 charge_a=0 charge_b=0 selection_a=1-2 selection_b=3-4 scaling=1.05 benchmark_Eint=-1.962 benchmark_unit=kcal/mol group=XH-Cl
  H   -0.110342394  -0.192657999  -0.611221571
 Cl   -0.167429507  -0.066833724  -1.890314160
  H    0.556732912   1.261928439   1.846183478
 Cl    0.168210978   0.047796892   1.981755487
