7
charge=0 charge_a=0 charge_b=0 selection_a=1-2 selection_b=3-7 scaling=1.25 benchmark_Eint=-2.506 benchmark_unit=kcal/mol group=XH-Cl
  H   -0.092966836  -0.971772838   0.278420076
 Cl    0.763202035  -1.756078545   0.845935265
  H    0.075086978   3.195931703  -0.005020707
  H    0.998284894   1.676958299  -0.173302294
  H    0.665060376   2.682733392  -1.610421907
  C    0.295124760   2.351867534  -0.647469778
 Cl   -1.239813064   1.452380742  -0.924029675
