7
charge=0 charge_a=0 charge_b=0 selection_a=1-2 selection_b=3-7 scaling=0.95 benchmark_Eint=-3.396 benchmark_unit=kcal/mol group=XH-Cl
  H   -0.092966836  -0.971772838   0.278420076
 Cl    0.763202035  -1.756078545   0.845935265
  H    0.350330073   2.614134844   0.283567233
  H    1.273527988   1.095161440   0.115285646
  H    0.940303471   2.100936533  -1.321833967
  C    0.570367855   1.770070675  -0.358881838
 Cl   -0.964569969   0.870583883  -0.635441735
