7
charge=0 charge_a=0 charge_b=0 selection_a=1-2 selection_b=3-7 scaling=1.1 benchmark_Eint=-3.362 benchmark_unit=kcal/mol group=XH-Cl
  H   -0.092966836  -0.971772838   0.278420076
 Cl    0.763202035  -1.756078545   0.845935265
  H    0.212708526   2.905033273   0.139273263
  H    1.135906441   1.386059869  -0.029008324
  H    0.802681924   2.391834962  -1.466127937
  C    0.432746308   2.060969104  -0.503175808
 Cl   -1.102191516   1.161482312  -0.779735705
