6
charge=0 charge_a=0 charge_b=0 selection_a=1-2 selection_b=3-6 scaling=1.0 benchmark_Eint=-2.170 benchmark_unit=kcal/mol group=XH-Cl
  H    0.186338801   0.360035766  -0.033235668
 Cl    0.535543709   1.044378509  -1.062251879
  P    0.796737855   0.411372888   3.366663746
 Cl   -0.334007857  -0.837703015   2.136398301
 Cl    2.597713022   0.382808023   2.366031121
 Cl    0.063488178   2.251276966   2.797807654
