6
charge=0 charge_a=0 charge_b=0 selection_a=1-2 selection_b=3-6 scaling=1.05 benchmark_Eint=-3.010 benchmark_unit=kcal/mol group=XH-Cl
  H   -0.410652818   0.210789272  -0.024674537
 Cl   -0.349341613   1.458523799  -0.335536749
 Cl   -0.111220154  -1.940265688   1.388598598
  S    1.093625752  -0.790508827   2.690248569
  S    0.012517560   0.644417412   3.427769094
 Cl   -0.951718996  -0.058973775   5.140854752
