6
charge=0 charge_a=0 charge_b=0 selection_a=1-2 selection_b=3-6 scaling=1.0 benchmark_Eint=-3.054 benchmark_unit=kcal/mol group=XH-Cl
  H   -0.410652818   0.210789272  -0.024674537
 Cl   -0.349341613   1.458523799  -0.335536749
 Cl   -0.125478852  -1.837834499   1.321299877
  S    1.079367054  -0.688077638   2.622949848
  S   -0.001741138   0.746848601   3.360470373
 Cl   -0.965977694   0.043457414   5.073556031
