6
charge=0 charge_a=0 charge_b=0 selection_a=1-2 selection_b=3-6 scaling=1.5 benchmark_Eint=-1.094 benchmark_unit=kcal/mol group=XH-Cl
  H   -0.410652818   0.210789272  -0.024674537
 Cl   -0.349341613   1.458523799  -0.335536749
 Cl    0.017108131  -2.862146384   1.994287084
  S    1.221954037  -1.712389524   3.295937055
  S    0.140845845  -0.277463284   4.033457580
 Cl   -0.823390711  -0.980854472   5.746543238
