4
charge=0 charge_a=0 charge_b=0 selection_a=1-2 selection_b=3-4 scaling=1.5 benchmark_Eint=-0.615 benchmark_unit=kcal/mol group=XH-Cl
  H   -0.206302610   0.021839009   0.188682247
 Br   -0.088763291  -0.089821309  -1.231551412
  H    1.616154512   0.225087638   3.763670342
 Cl    0.350712702   0.286281851   3.958195908
