4
charge=0 charge_a=0 charge_b=0 selection_a=1-2 selection_b=3-4 scaling=0.8 benchmark_Eint=1.108 benchmark_unit=kcal/mol group=XH-Cl
  H   -0.206302610   0.021839009   0.188682247
 Br   -0.088763291  -0.089821309  -1.231551412
  H    1.356214034   0.101680978   2.004563968
 Cl    0.090772223   0.162875191   2.199089533
