4
charge=0 charge_a=0 charge_b=0 selection_a=1-2 selection_b=3-4 scaling=0.85 benchmark_Eint=-0.374 benchmark_unit=kcal/mol group=XH-Cl
  H   -0.206302610   0.021839009   0.188682247
 Br   -0.088763291  -0.089821309  -1.231551412
  H    1.374781211   0.110495740   2.130214423
 Cl    0.109339400   0.171689953   2.324739988
