7
charge=0 charge_a=0 charge_b=0 selection_a=1-2 selection_b=3-7 scaling=0.85 benchmark_Eint=-1.473 benchmark_unit=kcal/mol group=XH-Cl
  H   -0.519803633  -0.110834186   0.000000000
 Br    0.006830518  -1.446762766   0.000000000
  H    1.560956448   2.493490884  -0.892805366
  H    1.560956448   2.493490884   0.892805366
  H    1.611467521   0.948353940   0.000000000
  C    1.243811312   1.968139517   0.000000000
 Cl   -0.554842783   1.911591589   0.000000000
