7
charge=0 charge_a=0 charge_b=0 selection_a=1-2 selection_b=3-7 scaling=1.25 benchmark_Eint=-2.343 benchmark_unit=kcal/mol group=XH-Cl
  H   -0.519803633  -0.110834186   0.000000000
 Br    0.006830518  -1.446762766   0.000000000
  H    1.544467437   3.445220660  -0.892805366
  H    1.544467437   3.445220660   0.892805366
  H    1.594978510   1.900083716   0.000000000
  C    1.227322301   2.919869293   0.000000000
 Cl   -0.571331794   2.863321365   0.000000000
