6
charge=0 charge_a=0 charge_b=0 selection_a=1-2 selection_b=3-6 scaling=2.0 benchmark_Eint=-0.305 benchmark_unit=kcal/mol group=XH-Cl
  H    0.201908319   0.238908418  -0.034579667
 Br    0.424126629   1.040088567  -1.193997794
  P    0.604094877  -0.765903758   5.620202918
 Cl   -0.315810929  -2.242004780   4.472841345
 Cl    2.355977912  -0.512894496   4.563402673
 Cl   -0.459921593   0.892148790   5.012785824
