6
charge=0 charge_a=0 charge_b=0 selection_a=1-2 selection_b=3-6 scaling=1.05 benchmark_Eint=-2.175 benchmark_unit=kcal/mol group=XH-Cl
  H    0.201908319   0.238908418  -0.034579667
 Br    0.424126629   1.040088567  -1.193997794
  P    0.850011520   0.412530011   3.479177937
 Cl   -0.069894286  -1.063571011   2.331816364
 Cl    2.601894555   0.665539273   2.422377692
 Cl   -0.214004950   2.070582559   2.871760843
