6
charge=0 charge_a=0 charge_b=0 selection_a=1-2 selection_b=3-6 scaling=1.1 benchmark_Eint=-2.456 benchmark_unit=kcal/mol group=XH-Cl
  H   -0.000420359   0.019101069   0.240038585
 Br   -0.551934057  -1.060207363  -0.515460577
 Cl    0.887151567   2.081599842   1.896537781
  S    0.031740669   1.505402484   3.739919256
  S   -1.030158059  -0.099429575   3.472410454
 Cl    0.212548606  -1.762759952   3.641382688
