6
charge=0 charge_a=0 charge_b=0 selection_a=1-2 selection_b=3-6 scaling=1.0 benchmark_Eint=-2.578 benchmark_unit=kcal/mol group=XH-Cl
  H   -0.000420359   0.019101069   0.240038585
 Br   -0.551934057  -1.060207363  -0.515460577
 Cl    0.806463210   1.894099954   1.745946945
  S   -0.048947688   1.317902595   3.589328420
  S   -1.110846416  -0.286929464   3.321819618
 Cl    0.131860249  -1.950259841   3.490791852
