4
charge=0 charge_a=0 charge_b=0 selection_a=1-2 selection_b=3-4 scaling=0.95 benchmark_Eint=-1.301 benchmark_unit=kcal/mol group=XH-Cl
  H   -0.121256969   0.081730430  -0.701405515
  I    0.507580931  -0.524354363  -2.059356758
 Cl   -0.440449723   0.487336388   1.826192419
 Cl    1.040926071  -0.847417424   2.064986686
