4
charge=0 charge_a=0 charge_b=0 selection_a=1-2 selection_b=3-4 scaling=1.0 benchmark_Eint=-1.405 benchmark_unit=kcal/mol group=XH-Cl
  H   -0.121256969   0.081730430  -0.701405515
  I    0.507580931  -0.524354363  -2.059356758
 Cl   -0.457249342   0.508684070   1.959223889
 Cl    1.024126452  -0.826069742   2.198018156
