4
charge=0 charge_a=0 charge_b=0 selection_a=1-2 selection_b=3-4 scaling=2.0 benchmark_Eint=-0.110 benchmark_unit=kcal/mol group=XH-Cl
  H   -0.121256969   0.081730430  -0.701405515
  I    0.507580931  -0.524354363  -2.059356758
 Cl   -0.793241715   0.935637710   4.619853293
 Cl    0.688134079  -0.399116102   4.858647560
