7
charge=0 charge_a=0 charge_b=0 selection_a=1-2 selection_b=3-7 scaling=1.0 benchmark_Eint=-2.766 benchmark_unit=kcal/mol group=XH-Cl
  H   -0.702521814   0.041860819  -0.493308322
  I   -0.187423614   0.613641067   0.935060773
  H    1.003180597  -1.860864033  -0.938046906
  H    0.434809144  -3.343336745  -1.752814729
  H    1.508079462  -2.206679964  -2.614449180
  C    0.713780196  -2.304648194  -1.884090088
 Cl   -0.722213059  -1.416716378  -2.501520663
