7
charge=0 charge_a=0 charge_b=0 selection_a=1-2 selection_b=3-7 scaling=1.5 benchmark_Eint=-1.016 benchmark_unit=kcal/mol group=XH-Cl
  H   -0.702521814   0.041860819  -0.493308322
  I   -0.187423614   0.613641067   0.935060773
  H    0.993334974  -2.590152632  -1.942153076
  H    0.424963522  -4.072625344  -2.756920900
  H    1.498233840  -2.935968562  -3.618555350
  C    0.703934574  -3.033936792  -2.888196258
 Cl   -0.732058682  -2.146004976  -3.505626834
