7
charge=0 charge_a=0 charge_b=0 selection_a=1-2 selection_b=3-7 scaling=0.9 benchmark_Eint=-2.056 benchmark_unit=kcal/mol group=XH-Cl
  H   -0.702521814   0.041860819  -0.493308322
  I   -0.187423614   0.613641067   0.935060773
  H    1.005149722  -1.715006313  -0.737225672
  H    0.436778268  -3.197479025  -1.551993495
  H    1.510048586  -2.060822244  -2.413627946
  C    0.715749320  -2.158790474  -1.683268854
 Cl   -0.720243934  -1.270858658  -2.300699429
