7
charge=0 charge_a=0 charge_b=0 selection_a=1-2 selection_b=3-7 scaling=2.0 benchmark_Eint=-0.302 benchmark_unit=kcal/mol group=XH-Cl
  H   -0.702521814   0.041860819  -0.493308322
  I   -0.187423614   0.613641067   0.935060773
  H    0.983489352  -3.319441230  -2.946259247
  H    0.415117899  -4.801913942  -3.761027070
  H    1.488388217  -3.665257161  -4.622661521
  C    0.694088951  -3.763225391  -3.892302429
 Cl   -0.741904304  -2.875293575  -4.509733004
