7
charge=0 charge_a=0 charge_b=0 selection_a=1-2 selection_b=3-7 scaling=0.95 benchmark_Eint=-2.577 benchmark_unit=kcal/mol group=XH-Cl
  H   -0.702521814   0.041860819  -0.493308322
  I   -0.187423614   0.613641067   0.935060773
  H    1.004165159  -1.787935173  -0.837636289
  H    0.435793706  -3.270407885  -1.652404112
  H    1.509064024  -2.133751104  -2.514038563
  C    0.714764758  -2.231719334  -1.783679471
 Cl   -0.721228497  -1.343787518  -2.401110046
