6
charge=0 charge_a=0 charge_b=0 selection_a=1-2 selection_b=3-6 scaling=0.8 benchmark_Eint=0.583 benchmark_unit=kcal/mol group=XH-Cl
  H    0.996301487   0.764677659  -0.139294810
  I   -0.079872838   0.620024382  -1.333149446
  P    0.558189377   0.504574853   2.925085454
 Cl   -0.164515177  -1.221397701   2.055529467
 Cl    2.169883339   0.910129926   1.675764051
 Cl   -0.807754331   1.888707753   2.235519699
