6
charge=0 charge_a=0 charge_b=0 selection_a=1-2 selection_b=3-6 scaling=0.9 benchmark_Eint=-1.586 benchmark_unit=kcal/mol group=XH-Cl
  H    0.996301487   0.764677659  -0.139294810
  I   -0.079872838   0.620024382  -1.333149446
  P    0.704887108   0.522756387   3.151967811
 Cl   -0.017817445  -1.203216167   2.282411824
 Cl    2.316581070   0.928311460   1.902646408
 Cl   -0.661056600   1.906889287   2.462402056
