6
charge=0 charge_a=0 charge_b=0 selection_a=1-2 selection_b=3-6 scaling=1.05 benchmark_Eint=-2.442 benchmark_unit=kcal/mol group=XH-Cl
  H    0.315231372   0.228341787  -0.485548812
  I   -0.037111902  -0.908289732  -1.577376645
 Cl    0.554162326   2.133863121   1.549360119
  S   -0.215781334   1.049399876   3.182424245
  S   -0.883671976  -0.662867688   2.548560301
 Cl    0.693210684  -2.026781039   2.512918110
