6
charge=0 charge_a=0 charge_b=0 selection_a=1-2 selection_b=3-6 scaling=1.25 benchmark_Eint=-1.837 benchmark_unit=kcal/mol group=XH-Cl
  H    0.315231372   0.228341787  -0.485548812
  I   -0.037111902  -0.908289732  -1.577376645
 Cl    0.599672984   2.496819566   1.936961820
  S   -0.170270676   1.412356321   3.570025946
  S   -0.838161318  -0.299911243   2.936162002
 Cl    0.738721342  -1.663824594   2.900519812
