6
charge=0 charge_a=0 charge_b=0 selection_a=1-2 selection_b=3-6 scaling=1.5 benchmark_Eint=-1.060 benchmark_unit=kcal/mol group=XH-Cl
  H    0.315231372   0.228341787  -0.485548812
  I   -0.037111902  -0.908289732  -1.577376645
 Cl    0.656561307   2.950515122   2.421463947
  S   -0.113382353   1.866051876   4.054528073
  S   -0.781272996   0.153784312   3.420664129
 Cl    0.795609664  -1.210129038   3.385021938
