6
charge=0 charge_a=0 charge_b=0 selection_a=1-2 selection_b=3-6 scaling=1.0 benchmark_Eint=-2.451 benchmark_unit=kcal/mol group=XH-Cl
  H    0.315231372   0.228341787  -0.485548812
  I   -0.037111902  -0.908289732  -1.577376645
 Cl    0.542784662   2.043124010   1.452459694
  S   -0.227158998   0.958660765   3.085523820
  S   -0.895049641  -0.753606799   2.451659876
 Cl    0.681833019  -2.117520150   2.416017685
