6
charge=0 charge_a=0 charge_b=0 selection_a=1-2 selection_b=3-6 scaling=0.8 benchmark_Eint=0.121 benchmark_unit=kcal/mol group=XH-Cl
  H    0.315231372   0.228341787  -0.485548812
  I   -0.037111902  -0.908289732  -1.577376645
 Cl    0.497274004   1.680167565   1.064857993
  S   -0.272669656   0.595704320   2.697922119
  S   -0.940560299  -1.116563244   2.064058175
 Cl    0.636322361  -2.480476595   2.028415984
