17
charge=0 charge_a=0 charge_b=0 selection_a=1-12 selection_b=13-17 scaling=0.9 benchmark_Eint=-3.418 benchmark_unit=kcal/mol group=XH-Br
  C   -1.605125881  -1.014746891   1.711949979
  H   -2.472584063  -0.812066236   2.338045882
  H   -0.898377574  -0.193047682   1.808034289
  H   -1.147965653  -1.932143777   2.077435033
  C   -2.078000876  -1.241953421   0.290355413
  O   -2.799133176  -2.178339709  -0.010103669
  N   -1.641071488  -0.340107996  -0.625975734
  H   -1.060786994   0.423832383  -0.326089048
  C   -2.036093438  -0.414536519  -2.018630308
  H   -3.072567042  -0.105729134  -2.161081008
  H   -1.388970382   0.234916660  -2.602556177
  H   -1.941823555  -1.437088447  -2.377555451
  H    0.680096183  -1.312989135  -0.484204809
  H    2.440132677  -1.032590324  -0.666155011
  H    1.731784201  -1.250434064   0.961559961
  C    1.568916834  -0.881207269  -0.042502986
 Br    1.272097782   1.053463056   0.085871850
