17
charge=0 charge_a=0 charge_b=0 selection_a=1-12 selection_b=13-17 scaling=0.8 benchmark_Eint=0.754 benchmark_unit=kcal/mol group=XH-Br
  C   -1.605125881  -1.014746891   1.711949979
  H   -2.472584063  -0.812066236   2.338045882
  H   -0.898377574  -0.193047682   1.808034289
  H   -1.147965653  -1.932143777   2.077435033
  C   -2.078000876  -1.241953421   0.290355413
  O   -2.799133176  -2.178339709  -0.010103669
  N   -1.641071488  -0.340107996  -0.625975734
  H   -1.060786994   0.423832383  -0.326089048
  C   -2.036093438  -0.414536519  -2.018630308
  H   -3.072567042  -0.105729134  -2.161081008
  H   -1.388970382   0.234916660  -2.602556177
  H   -1.941823555  -1.437088447  -2.377555451
  H    0.420886764  -1.382948098  -0.529978242
  H    2.180923258  -1.102549287  -0.711928444
  H    1.472574782  -1.320393027   0.915786528
  C    1.309707415  -0.951166232  -0.088276419
 Br    1.012888363   0.983504093   0.040098417
