10
charge=0 charge_a=0 charge_b=0 selection_a=1-8 selection_b=9-10 scaling=0.9 benchmark_Eint=-5.068 benchmark_unit=kcal/mol group=XH-Br
  C    0.120938912  -3.213905144   0.000000000
  O   -0.854262766  -2.493936571   0.000000000
  O    1.375551699  -2.746566060   0.000000000
  H    1.340327249  -1.774999249   0.000000000
  C    0.067804958  -4.711552324   0.000000000
  H   -0.964215052  -5.042573061   0.000000000
  H    0.586145538  -5.094916751  -0.877736564
  H    0.586145538  -5.094916751   0.877736564
 Br   -0.201791084  -0.080596960   0.000000000
 Br    0.390357409   2.188496737   0.000000000
