13
charge=0 charge_a=0 charge_b=0 selection_a=1-8 selection_b=9-13 scaling=2.0 benchmark_Eint=-0.170 benchmark_unit=kcal/mol group=XH-Br
  C   -0.006511951  -2.513439389   0.000000000
  O   -1.109945102  -2.031621773   0.000000000
  O    1.117964036  -1.767567331   0.000000000
  H    0.849063590  -0.831711953   0.000000000
  C    0.302483743  -3.984101864   0.000000000
  H   -0.621231650  -4.551723597   0.000000000
  H    0.896679832  -4.236211993  -0.877324914
  H    0.896679832  -4.236211993   0.877324914
  H    0.493103039   4.985058301  -0.894033628
  H   -0.679413323   5.993938934   0.000000000
  H    0.493103039   4.985058301   0.894033628
  C   -0.110681250   5.072943996   0.000000000
 Br   -1.395393438   3.593542249   0.000000000
