11
charge=0 charge_a=0 charge_b=0 selection_a=1-6 selection_b=7-11 scaling=1.1 benchmark_Eint=-3.667 benchmark_unit=kcal/mol group=XH-Br
  O   -0.240701088   1.999524425  -1.453316336
  H   -0.749410811   1.398189354  -0.900205020
  C    0.041786954   1.342830009  -2.680926899
  H    0.664870094   2.014850194  -3.266432542
  H    0.585166578   0.406156399  -2.527311245
  H   -0.867739438   1.129788836  -3.248683900
  H    1.478687715   0.850924596   0.300052011
  H    1.658091467   0.294975695   1.995308695
  H    2.296434434  -0.706766711   0.658716526
  C    1.531884350  -0.003721082   0.962825098
 Br   -0.195226906  -0.929586192   0.832559731
