11
charge=0 charge_a=0 charge_b=0 selection_a=1-6 selection_b=7-11 scaling=1.05 benchmark_Eint=-3.959 benchmark_unit=kcal/mol group=XH-Br
  O   -0.240701088   1.999524425  -1.453316336
  H   -0.749410811   1.398189354  -0.900205020
  C    0.041786954   1.342830009  -2.680926899
  H    0.664870094   2.014850194  -3.266432542
  H    0.585166578   0.406156399  -2.527311245
  H   -0.867739438   1.129788836  -3.248683900
  H    1.453497538   0.956732576   0.221289977
  H    1.632901290   0.400783675   1.916546661
  H    2.271244256  -0.600958731   0.579954492
  C    1.506694172   0.102086898   0.884063064
 Br   -0.220417084  -0.823778212   0.753797697
