8
charge=0 charge_a=0 charge_b=0 selection_a=1-3 selection_b=4-8 scaling=0.85 benchmark_Eint=-1.614 benchmark_unit=kcal/mol group=XH-Br
  O   -0.839742903  -2.093669239  -1.692221928
  H   -0.350912242  -2.504938818  -2.408435995
  H   -0.169835468  -1.778391156  -1.074681996
  H   -1.219970094   1.579447355  -0.931080260
  H   -1.684704775  -0.124509505  -1.248480917
  H   -2.076566467   0.637911725   0.325787402
  C   -1.381388438   0.598856013  -0.502636330
 Br    0.342817379  -0.010185737   0.216355930
