8
charge=0 charge_a=0 charge_b=0 selection_a=1-3 selection_b=4-8 scaling=1.1 benchmark_Eint=-3.343 benchmark_unit=kcal/mol group=XH-Br
  O   -0.839742903  -2.093669239  -1.692221928
  H   -0.350912242  -2.504938818  -2.408435995
  H   -0.169835468  -1.778391156  -1.074681996
  H   -1.069189845   2.099507772  -0.551363223
  H   -1.533924526   0.395550912  -0.868763880
  H   -1.925786218   1.157972142   0.705504439
  C   -1.230608189   1.118916430  -0.122919293
 Br    0.493597628   0.509874680   0.596072967
