8
charge=0 charge_a=0 charge_b=0 selection_a=1-3 selection_b=4-8 scaling=1.0 benchmark_Eint=-3.726 benchmark_unit=kcal/mol group=XH-Br
  O   -0.839742903  -2.093669239  -1.692221928
  H   -0.350912242  -2.504938818  -2.408435995
  H   -0.169835468  -1.778391156  -1.074681996
  H   -1.129501945   1.891483605  -0.703250038
  H   -1.594236626   0.187526745  -1.020650695
  H   -1.986098318   0.949947975   0.553617624
  C   -1.290920289   0.910892263  -0.274806108
 Br    0.433285528   0.301850513   0.444186152
