6
charge=0 charge_a=0 charge_b=0 selection_a=1-4 selection_b=5-6 scaling=0.85 benchmark_Eint=-0.015 benchmark_unit=kcal/mol group=XH-Br
  P    0.644638872  -1.223091347   2.053343625
  F    0.133898085   0.128313107   2.703268011
  F    2.088047328  -0.758228601   1.595282230
  H    0.024242371  -1.014481404   0.792614980
 Br    0.076818846   0.855587330  -0.676398902
 Br   -0.083140141   2.408032643  -2.321099503
