8
charge=0 charge_a=0 charge_b=0 selection_a=1-3 selection_b=4-8 scaling=1.5 benchmark_Eint=-0.804 benchmark_unit=kcal/mol group=XH-Br
  H    1.028618147   3.006350474   0.686345587
  H    1.376185339   1.173090011   0.155366235
  S    1.769888972   1.988733910   1.148416968
  H   -1.539425276  -0.782301672   1.192870940
  H   -3.176723564  -1.253815815   0.640126436
  H   -2.020915918  -2.507041594   1.178610549
  C   -2.135283596  -1.541958899   0.702199461
 Br   -1.463966218  -1.710932980  -1.132085757
