8
charge=0 charge_a=0 charge_b=0 selection_a=1-3 selection_b=4-8 scaling=2.0 benchmark_Eint=-0.230 benchmark_unit=kcal/mol group=XH-Br
  H    1.028618147   3.006350474   0.686345587
  H    1.376185339   1.173090011   0.155366235
  S    1.769888972   1.988733910   1.148416968
  H   -2.486142462  -1.743642669   0.763720276
  H   -4.123440749  -2.215156812   0.210975772
  H   -2.967633104  -3.468382591   0.749459885
  C   -3.082000781  -2.503299896   0.273048797
 Br   -2.410683403  -2.672273977  -1.561236421
