8
charge=0 charge_a=0 charge_b=0 selection_a=1-3 selection_b=4-8 scaling=1.25 benchmark_Eint=-1.642 benchmark_unit=kcal/mol group=XH-Br
  H    1.028618147   3.006350474   0.686345587
  H    1.376185339   1.173090011   0.155366235
  S    1.769888972   1.988733910   1.148416968
  H   -1.066066684  -0.301631174   1.407446272
  H   -2.703364971  -0.773145316   0.854701768
  H   -1.547557326  -2.026371096   1.393185881
  C   -1.661925003  -1.061288400   0.916774793
 Br   -0.990607625  -1.230262482  -0.917510425
