8
charge=0 charge_a=0 charge_b=0 selection_a=1-3 selection_b=4-8 scaling=1.0 benchmark_Eint=-2.555 benchmark_unit=kcal/mol group=XH-Br
  H    1.028618147   3.006350474   0.686345587
  H    1.376185339   1.173090011   0.155366235
  S    1.769888972   1.988733910   1.148416968
  H   -0.592708091   0.179039325   1.622021604
  H   -2.230006378  -0.292474818   1.069277100
  H   -1.074198733  -1.545700597   1.607761213
  C   -1.188566410  -0.580617902   1.131350125
 Br   -0.517249032  -0.749591983  -0.702935093
