4
charge=0 charge_a=0 charge_b=0 selection_a=1-2 selection_b=3-4 scaling=0.8 benchmark_Eint=1.597 benchmark_unit=kcal/mol group=XH-Br
  H   -0.211868903  -0.183170600  -1.755870419
  F   -0.260864790  -0.164601284  -2.683303353
  H    0.674050200   1.232431795   0.025703035
 Br    0.002596055  -0.016080312   0.178333776
