4
charge=0 charge_a=0 charge_b=0 selection_a=1-2 selection_b=3-4 scaling=1.1 benchmark_Eint=-2.595 benchmark_unit=kcal/mol group=XH-Br
  H   -0.211868903  -0.183170600  -1.755870419
  F   -0.260864790  -0.164601284  -2.683303353
  H    0.754474559   1.295090653   0.751029608
 Br    0.083020414   0.046578546   0.903660349
