4
charge=0 charge_a=0 charge_b=0 selection_a=1-2 selection_b=3-4 scaling=0.95 benchmark_Eint=-2.626 benchmark_unit=kcal/mol group=XH-Br
  H   -0.211868903  -0.183170600  -1.755870419
  F   -0.260864790  -0.164601284  -2.683303353
  H    0.714262379   1.263761224   0.388366322
 Br    0.042808234   0.015249117   0.540997063
