4
charge=0 charge_a=0 charge_b=0 selection_a=1-2 selection_b=3-4 scaling=0.9 benchmark_Eint=-2.031 benchmark_unit=kcal/mol group=XH-Br
  H   -0.211868903  -0.183170600  -1.755870419
  F   -0.260864790  -0.164601284  -2.683303353
  H    0.700858319   1.253318081   0.267478560
 Br    0.029404174   0.004805974   0.420109301
