4
charge=0 charge_a=0 charge_b=0 selection_a=1-2 selection_b=3-4 scaling=1.25 benchmark_Eint=-1.870 benchmark_unit=kcal/mol group=XH-Br
  H   -0.211868903  -0.183170600  -1.755870419
  F   -0.260864790  -0.164601284  -2.683303353
  H    0.794686738   1.326420082   1.113692895
 Br    0.123232593   0.077907975   1.266323636
