7
charge=0 charge_a=0 charge_b=0 selection_a=1-2 selection_b=3-7 scaling=0.9 benchmark_Eint=-3.722 benchmark_unit=kcal/mol group=XH-Br
  H    0.370908107  -1.769321552   0.000000000
  F    0.054797220  -2.647246487   0.000000000
  H   -2.002532679   0.683627151   0.895318218
  H   -2.002532679   0.683627151  -0.895318218
  H   -1.882538005  -0.863016146   0.000000000
  C   -1.644730798   0.192743436   0.000000000
 Br    0.314774663   0.344546162   0.000000000
