7
charge=0 charge_a=0 charge_b=0 selection_a=1-2 selection_b=3-7 scaling=0.85 benchmark_Eint=-2.070 benchmark_unit=kcal/mol group=XH-Br
  H    0.370908107  -1.769321552   0.000000000
  F    0.054797220  -2.647246487   0.000000000
  H   -1.999414154   0.566190055   0.895318218
  H   -1.999414154   0.566190055  -0.895318218
  H   -1.879419480  -0.980453242   0.000000000
  C   -1.641612273   0.075306340   0.000000000
 Br    0.317893188   0.227109066   0.000000000
