7
charge=0 charge_a=0 charge_b=0 selection_a=1-2 selection_b=3-7 scaling=1.0 benchmark_Eint=-4.705 benchmark_unit=kcal/mol group=XH-Br
  H    0.370908107  -1.769321552   0.000000000
  F    0.054797220  -2.647246487   0.000000000
  H   -2.008769728   0.918501341   0.895318218
  H   -2.008769728   0.918501341  -0.895318218
  H   -1.888775054  -0.628141956   0.000000000
  C   -1.650967847   0.427617626   0.000000000
 Br    0.308537614   0.579420352   0.000000000
