7
charge=0 charge_a=0 charge_b=0 selection_a=1-2 selection_b=3-7 scaling=1.25 benchmark_Eint=-3.172 benchmark_unit=kcal/mol group=XH-Br
  H    0.370908107  -1.769321552   0.000000000
  F    0.054797220  -2.647246487   0.000000000
  H   -2.024362351   1.505686817   0.895318218
  H   -2.024362351   1.505686817  -0.895318218
  H   -1.904367677  -0.040956480   0.000000000
  C   -1.666560470   1.014803102   0.000000000
 Br    0.292944991   1.166605828   0.000000000
