7
charge=0 charge_a=0 charge_b=0 selection_a=1-2 selection_b=3-7 scaling=0.8 benchmark_Eint=0.988 benchmark_unit=kcal/mol group=XH-Br
  H    0.370908107  -1.769321552   0.000000000
  F    0.054797220  -2.647246487   0.000000000
  H   -1.996295629   0.448752960   0.895318218
  H   -1.996295629   0.448752960  -0.895318218
  H   -1.876300955  -1.097890337   0.000000000
  C   -1.638493748  -0.042130755   0.000000000
 Br    0.321011713   0.109671971   0.000000000
