7
charge=0 charge_a=0 charge_b=0 selection_a=1-2 selection_b=3-7 scaling=0.95 benchmark_Eint=-4.486 benchmark_unit=kcal/mol group=XH-Br
  H    0.370908107  -1.769321552   0.000000000
  F    0.054797220  -2.647246487   0.000000000
  H   -2.005651203   0.801064246   0.895318218
  H   -2.005651203   0.801064246  -0.895318218
  H   -1.885656529  -0.745579051   0.000000000
  C   -1.647849322   0.310180531   0.000000000
 Br    0.311656139   0.461983257   0.000000000
