4
charge=0 charge_a=0 charge_b=0 selection_a=1-2 selection_b=3-4 scaling=1.05 benchmark_Eint=-1.943 benchmark_unit=kcal/mol group=XH-Br
  H    0.131593103  -1.418267892   0.000000000
 Cl   -0.001545089  -2.698740647   0.000000000
  H   -1.411719602   1.249359893   0.000000000
 Br    0.011227573   1.330540972   0.000000000
