4
charge=0 charge_a=0 charge_b=0 selection_a=1-2 selection_b=3-4 scaling=1.5 benchmark_Eint=-0.653 benchmark_unit=kcal/mol group=XH-Br
  H    0.131593103  -1.418267892   0.000000000
 Cl   -0.001545089  -2.698740647   0.000000000
  H   -1.463304829   2.427420835   0.000000000
 Br   -0.040357654   2.508601914   0.000000000
