7
charge=0 charge_a=0 charge_b=0 selection_a=1-2 selection_b=3-7 scaling=1.05 benchmark_Eint=-3.530 benchmark_unit=kcal/mol group=XH-Br
  H   -0.072045994   1.406971908  -0.521508829
 Cl   -0.835595874   2.302565376  -1.058046093
  H   -1.152378088  -2.318037514  -0.486878040
  H   -1.616668358  -1.738292294   1.141540298
  H   -1.723266565  -0.636154645  -0.264845961
  C   -1.194984659  -1.468708665   0.182197791
 Br    0.651246767  -0.884900155   0.500745200
