7
charge=0 charge_a=0 charge_b=0 selection_a=1-2 selection_b=3-7 scaling=2.0 benchmark_Eint=-0.368 benchmark_unit=kcal/mol group=XH-Br
  H   -0.072045994   1.406971908  -0.521508829
 Cl   -0.835595874   2.302565376  -1.058046093
  H   -0.497970351  -4.391636047   0.438018463
  H   -0.962260621  -3.811890827   2.066436801
  H   -1.068858828  -2.709753178   0.660050542
  C   -0.540576922  -3.542307198   1.107094294
 Br    1.305654504  -2.958498688   1.425641703
