4
charge=0 charge_a=0 charge_b=0 selection_a=1-2 selection_b=3-4 scaling=1.5 benchmark_Eint=-0.597 benchmark_unit=kcal/mol group=XH-Br
  H   -0.178902705   0.017114144  -0.619110867
 Br   -0.130070359  -0.202176731  -2.032071101
  H    1.489201022  -0.407941404   3.196749098
 Br    0.262274204   0.304026608   3.333524092
