4
charge=0 charge_a=0 charge_b=0 selection_a=1-2 selection_b=3-4 scaling=0.85 benchmark_Eint=-0.320 benchmark_unit=kcal/mol group=XH-Br
  H   -0.178902705   0.017114144  -0.619110867
 Br   -0.130070359  -0.202176731  -2.032071101
  H    1.298024362  -0.532270138   1.483940616
 Br    0.071097543   0.179697874   1.620715610
