7
charge=0 charge_a=0 charge_b=0 selection_a=1-2 selection_b=3-7 scaling=0.9 benchmark_Eint=-2.654 benchmark_unit=kcal/mol group=XH-Br
  H    0.448422173   0.705873360   0.000000000
 Br    0.018048804   2.077839545   0.000000000
  H   -1.823383152  -0.236918022   0.000000000
  H   -2.013097157  -1.775286349  -0.894873069
  H   -2.013097157  -1.775286349   0.894873069
  C   -1.630432019  -1.302374236   0.000000000
 Br    0.316316120  -1.543008197   0.000000000
