7
charge=0 charge_a=0 charge_b=0 selection_a=1-2 selection_b=3-7 scaling=2.0 benchmark_Eint=-0.343 benchmark_unit=kcal/mol group=XH-Br
  H    0.448422173   0.705873360   0.000000000
 Br    0.018048804   2.077839545   0.000000000
  H   -1.984846105  -2.985551037   0.000000000
  H   -2.174560110  -4.523919364  -0.894873069
  H   -2.174560110  -4.523919364   0.894873069
  C   -1.791894972  -4.051007251   0.000000000
 Br    0.154853167  -4.291641212   0.000000000
