7
charge=0 charge_a=0 charge_b=0 selection_a=1-2 selection_b=3-7 scaling=0.95 benchmark_Eint=-3.246 benchmark_unit=kcal/mol group=XH-Br
  H    0.448422173   0.705873360   0.000000000
 Br    0.018048804   2.077839545   0.000000000
  H   -1.830722377  -0.361855887   0.000000000
  H   -2.020436382  -1.900224214  -0.894873069
  H   -2.020436382  -1.900224214   0.894873069
  C   -1.637771244  -1.427312101   0.000000000
 Br    0.308976895  -1.667946062   0.000000000
