7
charge=0 charge_a=0 charge_b=0 selection_a=1-2 selection_b=3-7 scaling=0.85 benchmark_Eint=-1.414 benchmark_unit=kcal/mol group=XH-Br
  H    0.448422173   0.705873360   0.000000000
 Br    0.018048804   2.077839545   0.000000000
  H   -1.816043927  -0.111980158   0.000000000
  H   -2.005757932  -1.650348485  -0.894873069
  H   -2.005757932  -1.650348485   0.894873069
  C   -1.623092794  -1.177436372   0.000000000
 Br    0.323655345  -1.418070333   0.000000000
