4
charge=0 charge_a=0 charge_b=0 selection_a=1-2 selection_b=3-4 scaling=2.0 benchmark_Eint=-0.146 benchmark_unit=kcal/mol group=XH-Br
  H   -0.054804993   0.036642779  -0.613597215
  I    0.545944631  -0.621738058  -1.961828405
 Br   -1.018475391   1.331866085   4.689331793
 Br    0.603863737  -0.266624226   5.081733791
