4
charge=0 charge_a=0 charge_b=0 selection_a=1-2 selection_b=3-4 scaling=1.25 benchmark_Eint=-0.993 benchmark_unit=kcal/mol group=XH-Br
  H    0.282141029  -0.069740568   0.000000000
  I    0.090426866  -1.676360158   0.000000000
  H   -1.609562864   2.984719780   0.000000000
 Br   -0.232752772   3.351409890   0.000000000
