9
charge=0 charge_a=0 charge_b=0 selection_a=1-4 selection_b=5-9 scaling=1.05 benchmark_Eint=-2.267 benchmark_unit=kcal/mol group=XH-Br
  C    2.663045616   0.227510949  -0.731863166
  H    2.093230286   0.104836459   0.157573983
  C    3.284572696   0.365593487  -1.744345889
  H    3.844529683   0.488082556  -2.637569752
  H   -1.540190399  -0.822850915  -1.643264649
  H   -1.642612878   0.953203619  -1.463842383
  H   -0.045961914   0.162102497  -1.630799871
  C   -1.057855371   0.066064597  -1.257772869
 Br   -0.950652475  -0.124539168   0.690138063
