9
charge=0 charge_a=0 charge_b=0 selection_a=1-4 selection_b=5-9 scaling=0.9 benchmark_Eint=-1.715 benchmark_unit=kcal/mol group=XH-Br
  C    2.663045616   0.227510949  -0.731863166
  H    2.093230286   0.104836459   0.157573983
  C    3.284572696   0.365593487  -1.744345889
  H    3.844529683   0.488082556  -2.637569752
  H   -1.105350005  -0.790082968  -1.719345232
  H   -1.207772484   0.985971566  -1.539922966
  H    0.388878480   0.194870444  -1.706880454
  C   -0.623014977   0.098832544  -1.333853452
 Br   -0.515812081  -0.091771221   0.614057480
