9
charge=0 charge_a=0 charge_b=0 selection_a=1-4 selection_b=5-9 scaling=0.85 benchmark_Eint=-0.561 benchmark_unit=kcal/mol group=XH-Br
  C    2.663045616   0.227510949  -0.731863166
  H    2.093230286   0.104836459   0.157573983
  C    3.284572696   0.365593487  -1.744345889
  H    3.844529683   0.488082556  -2.637569752
  H   -0.960403207  -0.779160319  -1.744705426
  H   -1.062825686   0.996894215  -1.565283160
  H    0.533825278   0.205793093  -1.732240648
  C   -0.478068179   0.109755193  -1.359213646
 Br   -0.370865283  -0.080848572   0.588697286
