9
charge=0 charge_a=0 charge_b=0 selection_a=1-4 selection_b=5-9 scaling=1.0 benchmark_Eint=-2.345 benchmark_unit=kcal/mol group=XH-Br
  C    2.663045616   0.227510949  -0.731863166
  H    2.093230286   0.104836459   0.157573983
  C    3.284572696   0.365593487  -1.744345889
  H    3.844529683   0.488082556  -2.637569752
  H   -1.395243601  -0.811928266  -1.668624843
  H   -1.497666080   0.964126268  -1.489202577
  H    0.098984884   0.173025146  -1.656160065
  C   -0.912908573   0.076987246  -1.283133063
 Br   -0.805705677  -0.113616519   0.664777869
