6
charge=0 charge_a=0 charge_b=0 selection_a=1-4 selection_b=5-6 scaling=0.9 benchmark_Eint=-0.644 benchmark_unit=kcal/mol group=XH-I
  C    3.015193374   2.280630281  -0.314328323
  H    1.979179320   2.225806933  -0.541972989
  C    4.181016580   2.341859589  -0.056243710
  H    5.215756464   2.396168758   0.172770979
  I    0.895308564  -0.854460558   0.405176850
  I   -0.629751998   1.119882011  -0.595440103
