10
charge=0 charge_a=0 charge_b=0 selection_a=1-8 selection_b=9-10 scaling=1.05 benchmark_Eint=-6.468 benchmark_unit=kcal/mol group=XH-I
  C    2.420315214  -0.943616671  -0.318114076
  O    1.636509320  -1.814309563  -0.631969889
  O    2.043769655   0.297753204   0.010022958
  H    1.074399625   0.355272161  -0.049616313
  C    3.905992643  -1.126743941  -0.253198681
  H    4.162129039  -2.147220084  -0.513234161
  H    4.388735640  -0.431672908  -0.938821850
  H    4.259547315  -0.892819968   0.749887808
  I   -1.184918531  -1.298041247  -0.675148689
  I   -3.785774343  -0.507643390  -0.610801883
