13
charge=0 charge_a=0 charge_b=0 selection_a=1-8 selection_b=9-13 scaling=0.95 benchmark_Eint=-3.719 benchmark_unit=kcal/mol group=XH-I
  C    2.295987187  -1.044796774  -0.214012753
  O    1.608130596  -1.707941014  -0.949730534
  O    1.787684965  -0.270635279   0.764642421
  H    0.818919335  -0.361192101   0.743523324
  C    3.794938416  -0.970219046  -0.261974681
  H    4.167772092  -1.609430725  -1.054222028
  H    4.106374427   0.059276154  -0.433620904
  H    4.210136237  -1.279209843   0.696283134
  H   -3.325776581  -1.094906580   1.661933807
  H   -3.405615533   0.308676351   0.558010430
  H   -4.066236848  -1.269812786   0.045849102
  C   -3.306920529  -0.766689021   0.630743855
  I   -1.391374179  -1.308711644  -0.196899376
