13
charge=0 charge_a=0 charge_b=0 selection_a=1-8 selection_b=9-13 scaling=2.0 benchmark_Eint=-0.202 benchmark_unit=kcal/mol group=XH-I
  C    2.295987187  -1.044796774  -0.214012753
  O    1.608130596  -1.707941014  -0.949730534
  O    1.787684965  -0.270635279   0.764642421
  H    0.818919335  -0.361192101   0.743523324
  C    3.794938416  -0.970219046  -0.261974681
  H    4.167772092  -1.609430725  -1.054222028
  H    4.106374427   0.059276154  -0.433620904
  H    4.210136237  -1.279209843   0.696283134
  H   -5.768732571  -2.142165023   0.622519243
  H   -5.848571523  -0.738582092  -0.481404134
  H   -6.509192838  -2.317071229  -0.993565462
  C   -5.749876519  -1.813947464  -0.408670709
  I   -3.834330169  -2.355970087  -1.236313940
