13
charge=0 charge_a=0 charge_b=0 selection_a=1-8 selection_b=9-13 scaling=1.25 benchmark_Eint=-2.559 benchmark_unit=kcal/mol group=XH-I
  C    2.295987187  -1.044796774  -0.214012753
  O    1.608130596  -1.707941014  -0.949730534
  O    1.787684965  -0.270635279   0.764642421
  H    0.818919335  -0.361192101   0.743523324
  C    3.794938416  -0.970219046  -0.261974681
  H    4.167772092  -1.609430725  -1.054222028
  H    4.106374427   0.059276154  -0.433620904
  H    4.210136237  -1.279209843   0.696283134
  H   -4.023764007  -1.394123278   1.364958217
  H   -4.103602959   0.009459653   0.261034840
  H   -4.764224274  -1.569029484  -0.251126488
  C   -4.004907955  -1.065905719   0.333768265
  I   -2.089361605  -1.607928342  -0.493874966
