7
charge=0 charge_a=0 charge_b=0 selection_a=1-5 selection_b=6-7 scaling=0.9 benchmark_Eint=-3.175 benchmark_unit=kcal/mol group=XH-I
 Cl   -0.575698435  -1.472214385   2.379943369
  O   -1.975232315  -1.153829938   2.226844808
  O   -0.073175075  -2.291167023   1.295048366
  O    0.236358158   0.003916480   2.218315324
  H    0.067468974   0.296412876   1.297912989
  H   -0.518212443  -1.211959782  -0.740132538
  I   -0.434060030   0.355478207  -1.123499310
