7
charge=0 charge_a=0 charge_b=0 selection_a=1-5 selection_b=6-7 scaling=1.25 benchmark_Eint=-2.588 benchmark_unit=kcal/mol group=XH-I
 Cl   -0.575698435  -1.472214385   2.379943369
  O   -1.975232315  -1.153829938   2.226844808
  O   -0.073175075  -2.291167023   1.295048366
  O    0.236358158   0.003916480   2.218315324
  H    0.067468974   0.296412876   1.297912989
  H   -0.713251500  -1.188989930  -1.681792876
  I   -0.629099087   0.378448058  -2.065159648
