10
charge=0 charge_a=0 charge_b=0 selection_a=1-8 selection_b=9-10 scaling=0.9 benchmark_Eint=-2.929 benchmark_unit=kcal/mol group=XH-I
  H   -1.537232451   0.024646854   2.604461955
  H    2.024332805  -0.509374977   2.647351126
  H    0.296020737   1.402416451   0.134638147
  P    0.411031128   0.866065822   2.239745758
  O    0.393017290   1.538665348   3.530860407
  O   -0.787360387  -0.190475293   2.040080956
  O    0.338770549   1.836394556   0.999975294
  O    1.679644999  -0.027485278   1.889071108
  H   -0.723757480  -0.912833170  -0.016298906
  I   -0.244908360  -0.406725997  -1.475292424
