8
charge=0 charge_a=0 charge_b=0 selection_a=1-3 selection_b=4-8 scaling=1.05 benchmark_Eint=-3.400 benchmark_unit=kcal/mol group=XH-I
  O   -0.911617218  -0.140255114  -0.402986320
  H   -0.020341759   0.227103403  -0.409711049
  H   -0.793861892  -1.082373528  -0.261385658
  H   -0.482290275   2.761379258   2.710325441
  H   -0.871141755   3.667410182   1.216314825
  H   -1.096887490   1.887767732   1.265897206
  C   -0.522985666   2.730150497   1.629613385
  I    1.498740449   2.443338122   0.928792145
