8
charge=0 charge_a=0 charge_b=0 selection_a=1-3 selection_b=4-8 scaling=1.25 benchmark_Eint=-2.207 benchmark_unit=kcal/mol group=XH-I
  O   -0.911617218  -0.140255114  -0.402986320
  H   -0.020341759   0.227103403  -0.409711049
  H   -0.793861892  -1.082373528  -0.261385658
  H   -0.339980431   3.214216435   3.031195815
  H   -0.728831911   4.120247359   1.537185199
  H   -0.954577646   2.340604909   1.586767580
  C   -0.380675822   3.182987674   1.950483759
  I    1.641050293   2.896175299   1.249662519
