8
charge=0 charge_a=0 charge_b=0 selection_a=1-3 selection_b=4-8 scaling=1.0 benchmark_Eint=-3.506 benchmark_unit=kcal/mol group=XH-I
  O   -0.911617218  -0.140255114  -0.402986320
  H   -0.020341759   0.227103403  -0.409711049
  H   -0.793861892  -1.082373528  -0.261385658
  H   -0.517867736   2.648169964   2.630107848
  H   -0.906719216   3.554200888   1.136097232
  H   -1.132464951   1.774558438   1.185679613
  C   -0.558563127   2.616941203   1.549395792
  I    1.463162988   2.330128828   0.848574552
