8
charge=0 charge_a=0 charge_b=0 selection_a=1-3 selection_b=4-8 scaling=0.8 benchmark_Eint=1.894 benchmark_unit=kcal/mol group=XH-I
  O   -0.911617218  -0.140255114  -0.402986320
  H   -0.020341759   0.227103403  -0.409711049
  H   -0.793861892  -1.082373528  -0.261385658
  H   -0.660177580   2.195332787   2.309237474
  H   -1.049029060   3.101363711   0.815226858
  H   -1.274774795   1.321721261   0.864809239
  C   -0.700872971   2.164104026   1.228525418
  I    1.320853144   1.877291651   0.527704178
