5
charge=0 charge_a=0 charge_b=0 selection_a=1-3 selection_b=4-5 scaling=1.0 benchmark_Eint=-1.656 benchmark_unit=kcal/mol group=XH-I
  O    0.036762891  -1.498220141  -0.598041272
  H   -0.027235626  -0.569249960  -0.835711623
  H    0.232323283  -1.490423278   0.342840592
  I    0.220463343   2.238277629   0.552260391
  I    0.687390279   0.606750556   2.638479781
