5
charge=0 charge_a=0 charge_b=0 selection_a=1-3 selection_b=4-5 scaling=0.85 benchmark_Eint=0.326 benchmark_unit=kcal/mol group=XH-I
  O    0.036762891  -1.498220141  -0.598041272
  H   -0.027235626  -0.569249960  -0.835711623
  H    0.232323283  -1.490423278   0.342840592
  I    0.166823104   1.863914943   0.271100242
  I    0.633750040   0.232387870   2.357319632
