6
charge=0 charge_a=0 charge_b=0 selection_a=1-4 selection_b=5-6 scaling=0.9 benchmark_Eint=-0.208 benchmark_unit=kcal/mol group=XH-I
  P    0.644162376  -1.193150544   2.038614971
  F    0.129519841   0.166470517   2.666569853
  F    2.090702751  -0.735539023   1.584950187
  H    0.032744745  -0.999681717   0.768764606
  I    0.056046498   0.991669033  -0.854795018
  I   -0.098401042   2.849250430  -2.701377950
