6
charge=0 charge_a=0 charge_b=0 selection_a=1-4 selection_b=5-6 scaling=0.85 benchmark_Eint=0.774 benchmark_unit=kcal/mol group=XH-I
  P    0.644162376  -1.193150544   2.038614971
  F    0.129519841   0.166470517   2.666569853
  F    2.090702751  -0.735539023   1.584950187
  H    0.032744745  -0.999681717   0.768764606
  I    0.054751956   0.881038435  -0.764597261
  I   -0.099695584   2.738619832  -2.611180193
