6
charge=0 charge_a=0 charge_b=0 selection_a=1-4 selection_b=5-6 scaling=2.0 benchmark_Eint=-0.056 benchmark_unit=kcal/mol group=XH-I
  P    0.644162376  -1.193150544   2.038614971
  F    0.129519841   0.166470517   2.666569853
  F    2.090702751  -0.735539023   1.584950187
  H    0.032744745  -0.999681717   0.768764606
  I    0.084526419   3.425542171  -2.839145670
  I   -0.069921121   5.283123568  -4.685728602
