6
charge=0 charge_a=0 charge_b=0 selection_a=1-4 selection_b=5-6 scaling=1.25 benchmark_Eint=-0.623 benchmark_unit=kcal/mol group=XH-I
  P    0.644162376  -1.193150544   2.038614971
  F    0.129519841   0.166470517   2.666569853
  F    2.090702751  -0.735539023   1.584950187
  H    0.032744745  -0.999681717   0.768764606
  I    0.065108291   1.766083213  -1.486179316
  I   -0.089339249   3.623664610  -3.332762248
