6
charge=0 charge_a=0 charge_b=0 selection_a=1-4 selection_b=5-6 scaling=1.0 benchmark_Eint=-0.925 benchmark_unit=kcal/mol group=XH-I
  P    0.644162376  -1.193150544   2.038614971
  F    0.129519841   0.166470517   2.666569853
  F    2.090702751  -0.735539023   1.584950187
  H    0.032744745  -0.999681717   0.768764606
  I    0.058635582   1.212930227  -1.035190532
  I   -0.095811958   3.070511624  -2.881773464
