4
charge=0 charge_a=0 charge_b=0 selection_a=1-2 selection_b=3-4 scaling=1.0 benchmark_Eint=-2.512 benchmark_unit=kcal/mol group=XH-I
  H    0.074202185   0.025904311  -0.630747507
  F    0.250671682  -0.046737067  -1.540202382
  H    1.264947053   0.405938764   2.246517924
  I   -0.318253016   0.239870331   1.976815732
