4
charge=0 charge_a=0 charge_b=0 selection_a=1-2 selection_b=3-4 scaling=1.1 benchmark_Eint=-2.057 benchmark_unit=kcal/mol group=XH-I
  H    0.527032512  -0.487824092  -0.450049282
  F    0.315571085  -0.346592732  -1.343391973
  I   -0.745833712   0.789899255   3.159032561
  I    1.169812648  -0.918170667   2.356984726
