4
charge=0 charge_a=0 charge_b=0 selection_a=1-2 selection_b=3-4 scaling=1.25 benchmark_Eint=-1.453 benchmark_unit=kcal/mol group=XH-I
  H    0.527032512  -0.487824092  -0.450049282
  F    0.315571085  -0.346592732  -1.343391973
  I   -0.658181876   0.731215631   3.541809926
  I    1.257464484  -0.976854291   2.739762090
