7
charge=0 charge_a=0 charge_b=0 selection_a=1-2 selection_b=3-7 scaling=0.9 benchmark_Eint=-3.040 benchmark_unit=kcal/mol group=XH-I
  H   -1.689467412   1.506010635  -1.449584931
  F   -2.546181215   1.870770032  -1.505622768
  H   -0.516168211   1.683136546   1.956439217
  H   -1.998423950   1.260623821   1.042798831
  H   -1.076822790  -0.017400438   1.897754666
  C   -1.023510824   0.926858208   1.372715381
  I    0.157861624   0.598567689  -0.403791669
