7
charge=0 charge_a=0 charge_b=0 selection_a=1-2 selection_b=3-7 scaling=1.1 benchmark_Eint=-3.843 benchmark_unit=kcal/mol group=XH-I
  H   -1.689467412   1.506010635  -1.449584931
  F   -2.546181215   1.870770032  -1.505622768
  H   -0.105650647   1.481482558   2.188837719
  H   -1.587906386   1.058969833   1.275197333
  H   -0.666305226  -0.219054426   2.130153168
  C   -0.612993260   0.725204220   1.605113883
  I    0.568379188   0.396913701  -0.171393167
