7
charge=0 charge_a=0 charge_b=0 selection_a=1-2 selection_b=3-7 scaling=0.8 benchmark_Eint=2.080 benchmark_unit=kcal/mol group=XH-I
  H   -1.689467412   1.506010635  -1.449584931
  F   -2.546181215   1.870770032  -1.505622768
  H   -0.721426993   1.783963540   1.840239965
  H   -2.203682732   1.361450815   0.926599579
  H   -1.282081572   0.083426556   1.781555414
  C   -1.228769606   1.027685202   1.256516129
  I   -0.047397158   0.699394683  -0.519990921
