7
charge=0 charge_a=0 charge_b=0 selection_a=1-2 selection_b=3-7 scaling=0.85 benchmark_Eint=-1.239 benchmark_unit=kcal/mol group=XH-I
  H   -1.689467412   1.506010635  -1.449584931
  F   -2.546181215   1.870770032  -1.505622768
  H   -0.618797602   1.733550043   1.898339591
  H   -2.101053341   1.311037318   0.984699205
  H   -1.179452181   0.033013059   1.839655040
  C   -1.126140215   0.977271705   1.314615755
  I    0.055232233   0.648981186  -0.461891295
