7
charge=0 charge_a=0 charge_b=0 selection_a=1-2 selection_b=3-7 scaling=1.0 benchmark_Eint=-4.163 benchmark_unit=kcal/mol group=XH-I
  H   -1.689467412   1.506010635  -1.449584931
  F   -2.546181215   1.870770032  -1.505622768
  H   -0.310909429   1.582309552   2.072638468
  H   -1.793165168   1.159796827   1.158998082
  H   -0.871564008  -0.118227432   2.013953917
  C   -0.818252042   0.826031214   1.488914632
  I    0.363120406   0.497740695  -0.287592418
