4
charge=0 charge_a=0 charge_b=0 selection_a=1-2 selection_b=3-4 scaling=1.1 benchmark_Eint=-1.843 benchmark_unit=kcal/mol group=XH-I
  H   -0.027484798   0.006213767  -0.452895749
 Cl    0.385817577  -0.417411525  -1.596387247
  I   -0.652784439   0.698038355   2.466171391
  I    1.330474232  -1.045497713   2.968357295
