4
charge=0 charge_a=0 charge_b=0 selection_a=1-2 selection_b=3-4 scaling=2.0 benchmark_Eint=-0.192 benchmark_unit=kcal/mol group=XH-I
  H   -0.027484798   0.006213767  -0.452895749
 Cl    0.385817577  -0.417411525  -1.596387247
  I   -1.164393236   1.264076655   4.854499051
  I    0.818865435  -0.479459413   5.356684955
