4
charge=0 charge_a=0 charge_b=0 selection_a=1-2 selection_b=3-4 scaling=1.05 benchmark_Eint=-1.951 benchmark_unit=kcal/mol group=XH-I
  H   -0.027484798   0.006213767  -0.452895749
 Cl    0.385817577  -0.417411525  -1.596387247
  I   -0.624361728   0.666591783   2.333486521
  I    1.358896943  -1.076944285   2.835672425
