7
charge=0 charge_a=0 charge_b=0 selection_a=1-2 selection_b=3-7 scaling=1.5 benchmark_Eint=-1.112 benchmark_unit=kcal/mol group=XH-I
  H    0.022520196   0.264049533   0.142466592
 Cl   -0.507757895   1.073089818  -0.717554321
  H   -0.722732528   0.846633162   3.512499056
  H   -1.290019090  -0.168741321   4.874660076
  H    0.129526806   0.902183843   5.087262058
  C   -0.435856098   0.291410930   4.396204354
  I    0.863606638  -1.301621196   3.745202092
