7
charge=0 charge_a=0 charge_b=0 selection_a=1-2 selection_b=3-7 scaling=2.0 benchmark_Eint=-0.306 benchmark_unit=kcal/mol group=XH-I
  H    0.022520196   0.264049533   0.142466592
 Cl   -0.507757895   1.073089818  -0.717554321
  H   -0.442370381   0.324742919   4.713410890
  H   -1.009656943  -0.690631564   6.075571910
  H    0.409888953   0.380293600   6.288173892
  C   -0.155493950  -0.230479313   5.597116187
  I    1.143968786  -1.823511439   4.946113926
