7
charge=0 charge_a=0 charge_b=0 selection_a=1-2 selection_b=3-7 scaling=0.9 benchmark_Eint=-2.352 benchmark_unit=kcal/mol group=XH-I
  H    0.022520196   0.264049533   0.142466592
 Cl   -0.507757895   1.073089818  -0.717554321
  H   -1.059167106   1.472901454   2.071404856
  H   -1.626453668   0.457526971   3.433565876
  H   -0.206907772   1.528452135   3.646167858
  C   -0.772290674   0.917679222   2.955110153
  I    0.527172062  -0.675352904   2.304107892
