7
charge=0 charge_a=0 charge_b=0 selection_a=1-2 selection_b=3-7 scaling=1.1 benchmark_Eint=-3.138 benchmark_unit=kcal/mol group=XH-I
  H    0.022520196   0.264049533   0.142466592
 Cl   -0.507757895   1.073089818  -0.717554321
  H   -0.947022246   1.264145356   2.551769590
  H   -1.514308808   0.248770873   3.913930610
  H   -0.094762912   1.319696037   4.126532592
  C   -0.660145816   0.708923124   3.435474887
  I    0.639316920  -0.884109002   2.784472626
