4
charge=0 charge_a=0 charge_b=0 selection_a=1-2 selection_b=3-4 scaling=0.95 benchmark_Eint=-1.816 benchmark_unit=kcal/mol group=XH-I
  H    0.002966274  -0.019471612  -0.479045110
 Br    0.558651635  -0.554914781  -1.684649938
  I   -0.661359591   0.666302278   2.006114862
  I    1.319384137  -1.048546014   2.604890611
