4
charge=0 charge_a=0 charge_b=0 selection_a=1-2 selection_b=3-4 scaling=1.5 benchmark_Eint=-0.671 benchmark_unit=kcal/mol group=XH-I
  H    0.002966274  -0.019471612  -0.479045110
 Br    0.558651635  -0.554914781  -1.684649938
  I   -1.045969302   1.063329268   3.444891688
  I    0.934774426  -0.651519024   4.043667436
