4
charge=0 charge_a=0 charge_b=0 selection_a=1-2 selection_b=3-4 scaling=2.0 benchmark_Eint=-0.193 benchmark_unit=kcal/mol group=XH-I
  H    0.002966274  -0.019471612  -0.479045110
 Br    0.558651635  -0.554914781  -1.684649938
  I   -1.395614494   1.424262894   4.752870620
  I    0.585129234  -0.290585398   5.351646369
