7
charge=0 charge_a=0 charge_b=0 selection_a=1-2 selection_b=3-7 scaling=2.0 benchmark_Eint=-0.297 benchmark_unit=kcal/mol group=XH-I
  H   -0.014482918   0.230198996   0.135923832
 Br   -0.591513625   1.129521212  -0.829526750
  H   -0.458273006   0.279330885   4.696576400
  H   -0.947901423  -0.667344535   6.136371219
  H    0.495601063   0.390116493   6.208551334
  C   -0.121137927  -0.241758195   5.583527990
  I    1.112405052  -1.880595758   4.920435242
