7
charge=0 charge_a=0 charge_b=0 selection_a=1-2 selection_b=3-7 scaling=0.8 benchmark_Eint=1.795 benchmark_unit=kcal/mol group=XH-I
  H   -0.014482918   0.230198996   0.135923832
 Br   -0.591513625   1.129521212  -0.829526750
  H   -1.134405788   1.545807737   1.825869554
  H   -1.624034205   0.599132317   3.265664373
  H   -0.180531719   1.656593345   3.337844488
  C   -0.797270709   1.024718657   2.712821144
  I    0.436272270  -0.614118906   2.049728396
