7
charge=0 charge_a=0 charge_b=0 selection_a=1-2 selection_b=3-7 scaling=0.95 benchmark_Eint=-3.082 benchmark_unit=kcal/mol group=XH-I
  H   -0.014482918   0.230198996   0.135923832
 Br   -0.591513625   1.129521212  -0.829526750
  H   -1.049889190   1.387498131   2.184707910
  H   -1.539517607   0.440822711   3.624502729
  H   -0.096015121   1.498283739   3.696682844
  C   -0.712754111   0.866409051   3.071659500
  I    0.520788868  -0.772428512   2.408566752
