7
charge=0 charge_a=0 charge_b=0 selection_a=1-2 selection_b=3-7 scaling=1.5 benchmark_Eint=-1.108 benchmark_unit=kcal/mol group=XH-I
  H   -0.014482918   0.230198996   0.135923832
 Br   -0.591513625   1.129521212  -0.829526750
  H   -0.739994998   0.807029574   3.500448548
  H   -1.229623416  -0.139645846   4.940243366
  H    0.213879070   0.917815182   5.012423482
  C   -0.402859920   0.285940494   4.387400138
  I    0.830683060  -1.352897070   3.724307390
