7
charge=0 charge_a=0 charge_b=0 selection_a=1-2 selection_b=3-7 scaling=1.25 benchmark_Eint=-2.245 benchmark_unit=kcal/mol group=XH-I
  H   -0.014482918   0.230198996   0.135923832
 Br   -0.591513625   1.129521212  -0.829526750
  H   -0.880855995   1.070878918   2.902384621
  H   -1.370484412   0.124203498   4.342179440
  H    0.073018074   1.181664526   4.414359555
  C   -0.543720916   0.549789838   3.789336211
  I    0.689822063  -1.089047725   3.126243463
