7
charge=0 charge_a=0 charge_b=0 selection_a=1-2 selection_b=3-7 scaling=1.25 benchmark_Eint=-2.028 benchmark_unit=kcal/mol group=XH-I
  H   -0.507870575   0.917833145  -0.360493599
  I   -1.171783424   2.175692016   0.433163743
  H    3.216340174  -1.040370406   1.044085399
  H    1.580234218  -0.407074116   1.403431739
  H    1.962803018  -2.128566794   1.715247098
  C    2.159553270  -1.266947044   1.091332467
  I    1.523702852  -1.766173552  -0.905658640
