7
charge=0 charge_a=0 charge_b=0 selection_a=1-2 selection_b=3-7 scaling=0.9 benchmark_Eint=-1.912 benchmark_unit=kcal/mol group=XH-I
  H   -0.507870575   0.917833145  -0.360493599
  I   -1.171783424   2.175692016   0.433163743
  H    2.647499614  -0.288848530   1.196731610
  H    1.011393658   0.344447760   1.556077950
  H    1.393962458  -1.377044919   1.867893309
  C    1.590712710  -0.515425168   1.243978678
  I    0.954862293  -1.014651677  -0.753012429
